<?xml version="1.0" encoding="UTF-8"?>

<!-- generated on 2024-10-16 17:02:32.703035 by routeSampler.py UNKNOWN
<configuration>
    <route-files value="data/processed/bendale-glen_andrew/initial_route_file_truck.rou.xml"/>
    <turn-files value="data/processed/bendale-glen_andrew/turning_movements_truck.xml"/>
    <output-file value="data/sumo_networks/bendale-glen_andrew/bendale-glen_andrew_truck_routes.rou.xml"/>
    <prefix value="truck"/>
    <begin value="28800"/>
    <end value="34200"/>
    <total-count value="604"/>
</configuration>
-->

<routes xmlns:xsi="http://www.w3.org/2001/XMLSchema-instance" xsi:noNamespaceSchemaLocation="http://sumo.dlr.de/xsd/routes_file.xsd">
<!-- begin="28800.0" end="29700.0" -->
    <vehicle id="truck28800_0" depart="28804.56">
        <route edges="-109289 -109525 -109541 -109729 109728 109716 109685 109616 11485062 -109628"/>
    </vehicle>
    <vehicle id="truck28800_1" depart="28808.28">
        <route edges="-109262 -109340"/>
    </vehicle>
    <vehicle id="truck28800_2" depart="28814.93">
        <route edges="-109406 -109449 109448"/>
    </vehicle>
    <vehicle id="truck28800_3" depart="28833.20">
        <route edges="-30029963 -30029962 108877 -108728 5101676"/>
    </vehicle>
    <vehicle id="truck28800_4" depart="28836.70">
        <route edges="-109262 -109340 -30107360 -30107359 9910076"/>
    </vehicle>
    <vehicle id="truck28800_5" depart="28846.33">
        <route edges="6541762 14673433 3644393 20146476 20146477"/>
    </vehicle>
    <vehicle id="truck28800_6" depart="28875.73">
        <route edges="14673433 3644393 20146476 20146477 107598 3633149 107241 107226 107163 107037 107019 107007"/>
    </vehicle>
    <vehicle id="truck28800_7" depart="28881.26">
        <route edges="107930 107795 107766"/>
    </vehicle>
    <vehicle id="truck28800_8" depart="28883.79">
        <route edges="-109124 -109263 109262 109239"/>
    </vehicle>
    <vehicle id="truck28800_9" depart="28891.32">
        <route edges="110000 5087274 109688 30122712 30122716 30122723"/>
    </vehicle>
    <vehicle id="truck28800_10" depart="28902.13">
        <route edges="108204 -108134"/>
    </vehicle>
    <vehicle id="truck28800_11" depart="28923.77">
        <route edges="30020539 109739 109729 109542 109522 109449 109406"/>
    </vehicle>
    <vehicle id="truck28800_12" depart="28930.41">
        <route edges="13232758 7155256 4605051 30140177 30140178 109739 109728 109716 109685 109616 11485062 9638451 109516 30001462 30001463 109285 109176 30020544 30020545 109044 108969 -109052 -109154"/>
    </vehicle>
    <vehicle id="truck28800_13" depart="28944.73">
        <route edges="108840 -108867 -108839 -108973 30001448 30088936 30083207 30083208 30083231 30010612"/>
    </vehicle>
    <vehicle id="truck28800_14" depart="28945.47">
        <route edges="109360 108915 108596 108537 7204446 108103 6541762 7204482"/>
    </vehicle>
    <vehicle id="truck28800_15" depart="28956.93">
        <route edges="-109021 -109009 -109052 -109110 -30083231 -30083208 -30083207 -30088936 -30001448 108973 108828 108714 108583"/>
    </vehicle>
    <vehicle id="truck28800_16" depart="28967.87">
        <route edges="110000 5087274 109688 30122712 30122713 9910076 109360 108915 108596 108537 7204446 108103 6541762 7204482 7204470"/>
    </vehicle>
    <vehicle id="truck28800_17" depart="29001.84">
        <route edges="-108685 -108877"/>
    </vehicle>
    <vehicle id="truck28800_18" depart="29003.85">
        <route edges="-108867 -108839 -108973 30001448 30088936 30083207 30083208 30083231 30010612 30010613 30071791 30071792 30020570 30020544 30020545"/>
    </vehicle>
    <vehicle id="truck28800_19" depart="29013.52">
        <route edges="-108839 -108973 30001448 30088936 30083207 30083208 30083231 109110 109052 -108969 108942 -108850 -109021"/>
    </vehicle>
    <vehicle id="truck28800_20" depart="29013.87">
        <route edges="-109448 -109522 -109542 -109729 109728 109716 109685 109616 109607"/>
    </vehicle>
    <vehicle id="truck28800_21" depart="29015.61">
        <route edges="-3644393 -14673433 7204482 7204470 107430 107388 107369"/>
    </vehicle>
    <vehicle id="truck28800_22" depart="29017.67">
        <route edges="30010612 30010613 109154 -109110 -30083231 -30083208 -30083207 -30088936 -30001448 108973"/>
    </vehicle>
    <vehicle id="truck28800_23" depart="29017.85">
        <route edges="109449 -109448 -109522 -109542 109541"/>
    </vehicle>
    <vehicle id="truck28800_24" depart="29026.60">
        <route edges="2146326 30001448 30088936 30083207 30083208 30083231 30010612 30010613 109154 -109110"/>
    </vehicle>
    <vehicle id="truck28800_25" depart="29032.15">
        <route edges="109524 -109615 -109541"/>
    </vehicle>
    <vehicle id="truck28800_26" depart="29050.78">
        <route edges="7155256 4605051 30140177 30140178 109739 109728 109716 109685 109616 11485062 9638451 109516 30001462 30001463 109285"/>
    </vehicle>
    <vehicle id="truck28800_27" depart="29056.36">
        <route edges="-108877 30029962 30029963 108726 108555 30029999 30030000 108322 3648605 3648609"/>
    </vehicle>
    <vehicle id="truck28800_28" depart="29070.79">
        <route edges="-109009 -109052 -109110 30010612 30010613 109154"/>
    </vehicle>
    <vehicle id="truck28800_29" depart="29088.70">
        <route edges="-108969 108942 -108850 -109021 -109009 -109052 -109110 30010612 30010613"/>
    </vehicle>
    <vehicle id="truck28800_30" depart="29092.86">
        <route edges="110000 5087274 109688 30122712 30122713 30107359 30107360 109340 109263 109124 109096 109024"/>
    </vehicle>
    <vehicle id="truck28800_31" depart="29105.13">
        <route edges="107307 107238 107193 107148 107048 107037"/>
    </vehicle>
    <vehicle id="truck28800_32" depart="29106.96">
        <route edges="30075799 9638455 -30030000 -30029999"/>
    </vehicle>
    <vehicle id="truck28800_33" depart="29114.29">
        <route edges="20035249 109686 30001364 30001365 30001367 30039277 30039278"/>
    </vehicle>
    <vehicle id="truck28800_34" depart="29131.00">
        <route edges="-30010613 -30010612 109110 109052 -108969 108942 108797 108611"/>
    </vehicle>
    <vehicle id="truck28800_35" depart="29148.06">
        <route edges="108969 -109052 -109154 30071791 30071792 30020570 30020544 30020545 109044 108942 108797 108611 108260 -108287"/>
    </vehicle>
    <vehicle id="truck28800_36" depart="29240.51">
        <route edges="109729 109542 109522"/>
    </vehicle>
    <vehicle id="truck28800_37" depart="29247.52">
        <route edges="-109507 -109524 -109541 -109729 109728 109716"/>
    </vehicle>
    <vehicle id="truck28800_38" depart="29252.41">
        <route edges="108568 108287 20050651"/>
    </vehicle>
    <vehicle id="truck28800_39" depart="29260.88">
        <route edges="-30083231 -30083208 -30083207 -30088936 -30001448 108973 108839 108840 -108867 -108839 -108973 30001448 30088936 30083207 30083208 30083231 109110 109052 -108969 108942 108797 108611"/>
    </vehicle>
    <vehicle id="truck28800_40" depart="29276.69">
        <route edges="-109154 30071791 30071792 30020570 30020544 30020545 109044 108942 108797 108611"/>
    </vehicle>
    <vehicle id="truck28800_41" depart="29282.20">
        <route edges="2146326 108973 108839 108840 -108867 -108839"/>
    </vehicle>
    <vehicle id="truck28800_42" depart="29293.86">
        <route edges="30088936 30083207 30083208 30083231 109110 109052 109010 -109009"/>
    </vehicle>
    <vehicle id="truck28800_43" depart="29299.68">
        <route edges="-108555 -108686 108685"/>
    </vehicle>
    <vehicle id="truck28800_44" depart="29331.80">
        <route edges="30010612 30010613 30071791 30071792 30020570 30020544 30020545 109044 108942 -108850 108851"/>
    </vehicle>
    <vehicle id="truck28800_45" depart="29345.79">
        <route edges="7155256 4605051 30140177 30140178 109739 109728 109716 109685 109616 109607"/>
    </vehicle>
    <vehicle id="truck28800_46" depart="29348.61">
        <route edges="30075799 9638455 108322 3648605 3648609 107930 107795 107766 107598 3633149 107241 107227"/>
    </vehicle>
    <vehicle id="truck28800_47" depart="29369.08">
        <route edges="-109024 -109096 -109124 -109263 -109340 -30107360 -30107359 9910076 109360 108915 108596"/>
    </vehicle>
    <vehicle id="truck28800_48" depart="29369.79">
        <route edges="-109542 109541 109525 109289 109166 -30001445"/>
    </vehicle>
    <vehicle id="truck28800_49" depart="29370.18">
        <route edges="-108850 -109021 -109009 -109052 -109110 -30083231 -30083208 -30083207 108983 108814"/>
    </vehicle>
    <vehicle id="truck28800_50" depart="29377.83">
        <route edges="-109506 -109524 -109541 -109729 109728 109716 109685"/>
    </vehicle>
    <vehicle id="truck28800_51" depart="29380.66">
        <route edges="109522 109449 -109448 -109522 -109542 109541 109525 109289 109166 -30001445"/>
    </vehicle>
    <vehicle id="truck28800_52" depart="29384.67">
        <route edges="110000 5087274 109688 30122712 30122713 30107359 30107360 109340 109262 109240 -109239"/>
    </vehicle>
    <vehicle id="truck28800_53" depart="29386.77">
        <route edges="108686 108555 30029999"/>
    </vehicle>
    <vehicle id="truck28800_54" depart="29393.99">
        <route edges="20050671 20050672 -108133 -108204 108205 108134"/>
    </vehicle>
    <vehicle id="truck28800_55" depart="29397.15">
        <route edges="108942 -108850 -109021 -109009 -109052 -109154 30071791 30071792 30020570"/>
    </vehicle>
    <vehicle id="truck28800_56" depart="29404.92">
        <route edges="13232758 7155256 4605051 30140177 30140178 109739 109729 109541 109525 109289 109166 -30001445 -30001444 -109274"/>
    </vehicle>
    <vehicle id="truck28800_57" depart="29409.81">
        <route edges="109052 -108969 108942 108797 108611 108260 20050651"/>
    </vehicle>
    <vehicle id="truck28800_58" depart="29421.84">
        <route edges="-108813 -108983 30083207 30083208 30083231 109110 109052 -108969 108942 108797 108611 108260 20050651"/>
    </vehicle>
    <vehicle id="truck28800_59" depart="29422.71">
        <route edges="107930 107795 107766"/>
    </vehicle>
    <vehicle id="truck28800_60" depart="29440.96">
        <route edges="107930 107795 107766 107598 3633149 107241 107227 107209"/>
    </vehicle>
    <vehicle id="truck28800_61" depart="29453.36">
        <route edges="109110 -109154 -30010613 -30010612 -30083231 -30083208 -30083207 -30088936 -30001448 108973 108828 108714"/>
    </vehicle>
    <vehicle id="truck28800_62" depart="29455.39">
        <route edges="6541762 14673433 3644393 20146476 20146477"/>
    </vehicle>
    <vehicle id="truck28800_63" depart="29471.84">
        <route edges="30075799 9638455 -30030000 -30029999"/>
    </vehicle>
    <vehicle id="truck28800_64" depart="29485.46">
        <route edges="108686 108555 30029999 30030000 108322 3648605 3648609 107930 107795 107766 107598 3633149 107241 107226 107163 107037 107019"/>
    </vehicle>
    <vehicle id="truck28800_65" depart="29501.89">
        <route edges="9910076 109360 108915 108596 108537 108388 108327 108247"/>
    </vehicle>
    <vehicle id="truck28800_66" depart="29535.50">
        <route edges="108973 108839 108840 -108867 -108839 -108973 30001448 30088936 30083207 30083208 30083231 30010612 30010613 109154 -109110 -30083231 -30083208"/>
    </vehicle>
    <vehicle id="truck28800_67" depart="29551.77">
        <route edges="-108294 -108525 108503"/>
    </vehicle>
    <vehicle id="truck28800_68" depart="29589.61">
        <route edges="6541762 14673433 3644393 20146476 20146477"/>
    </vehicle>
    <vehicle id="truck28800_69" depart="29598.38">
        <route edges="-108851 -109021 -109009 -109052 -109154 30071791 30071792"/>
    </vehicle>
    <vehicle id="truck28800_70" depart="29607.40">
        <route edges="110000 5087274 109688 30122712 30122713 30107359 30107360 109340 109262"/>
    </vehicle>
    <vehicle id="truck28800_71" depart="29607.49">
        <route edges="-30010612 109110 109052 109009 -109010"/>
    </vehicle>
    <vehicle id="truck28800_72" depart="29608.70">
        <route edges="-5101627 -109289 -109525 -109541 -109729 109728 109716 109685 109616"/>
    </vehicle>
    <vehicle id="truck28800_73" depart="29610.38">
        <route edges="30122712 30122713 30107359 30107360 109340 109262 109239 109221"/>
    </vehicle>
    <vehicle id="truck28800_74" depart="29617.44">
        <route edges="7155256 4605051 30140177 30140178 109739 109729 109541 109525 109289 109166 -30001445 -30001444 -109274"/>
    </vehicle>
    <vehicle id="truck28800_75" depart="29632.22">
        <route edges="107930 107795 107766"/>
    </vehicle>
    <vehicle id="truck28800_76" depart="29643.06">
        <route edges="108429 7204446 108103 6541762 7204482 7204470"/>
    </vehicle>
    <vehicle id="truck28800_77" depart="29666.20">
        <route edges="-30088936 -30001448 108973 108839 108840 -108867"/>
    </vehicle>
    <vehicle id="truck28800_78" depart="29674.60">
        <route edges="-109289 -109525 -109541 109542 109522 109449"/>
    </vehicle>
    <vehicle id="truck28800_79" depart="29687.09">
        <route edges="-14673433 7204482 107831 20146476 20146477 107598 3633149 107241"/>
    </vehicle>
<!-- begin="29700.0" end="30600.0" -->
    <vehicle id="truck29700_0" depart="29709.75">
        <route edges="109052 -108969 108942 108797 108611 108260 -108287"/>
    </vehicle>
    <vehicle id="truck29700_1" depart="29710.22">
        <route edges="30001462 30001463 109285 109176 -30020570 -30071792 -30071791 -30010613 -30010612 -30083231 -30083208 -30083207 -30088936 -30001448 108973 108828 108714 108583 108396"/>
    </vehicle>
    <vehicle id="truck29700_2" depart="29710.94">
        <route edges="108429 7204446 108103 6541762 14673433 3644393 20146476"/>
    </vehicle>
    <vehicle id="truck29700_3" depart="29738.84">
        <route edges="107226 107163 107037 107018"/>
    </vehicle>
    <vehicle id="truck29700_4" depart="29750.67">
        <route edges="-109615 -109541 -109729 109728 109716 109686"/>
    </vehicle>
    <vehicle id="truck29700_5" depart="29751.80">
        <route edges="109285 109176 -30020570 -30071792 -30071791 -30010613 -30010612 -30083231 -30083208 -30083207 -30088936 -30001448 108973 108839 108840 108704"/>
    </vehicle>
    <vehicle id="truck29700_6" depart="29765.49">
        <route edges="30140178 109739 109728 109716 109685 109616 11485062 9638451"/>
    </vehicle>
    <vehicle id="truck29700_7" depart="29773.21">
        <route edges="109044 108942 108797 108611 108260"/>
    </vehicle>
    <vehicle id="truck29700_8" depart="29775.15">
        <route edges="109110 -109154 -30010613 -30010612 -30083231 -30083208 -30083207 -30088936 -30001448 108973"/>
    </vehicle>
    <vehicle id="truck29700_9" depart="29775.70">
        <route edges="109448 -109449 -109522 -109542 -109729"/>
    </vehicle>
    <vehicle id="truck29700_10" depart="29776.35">
        <route edges="13232758 5087274 109688 30122712 30122713 30107359 30107360 109340 109263 109125"/>
    </vehicle>
    <vehicle id="truck29700_11" depart="29782.09">
        <route edges="108686 108555 30029999 30030000 108322 3648605 3648609 107930 107795 107766 107598 3633149 107241 107226"/>
    </vehicle>
    <vehicle id="truck29700_12" depart="29782.16">
        <route edges="13232758 7155256 4605051 30140177 30140178 -30020539"/>
    </vehicle>
    <vehicle id="truck29700_13" depart="29791.01">
        <route edges="108429 108388 108327 108247 30001420 30001421 6786837"/>
    </vehicle>
    <vehicle id="truck29700_14" depart="29792.81">
        <route edges="-30083208 -30083207 -30088936 -30001448 108973 108839 108840 -108867 -108839 -108973 30001448 30088936 30083207 30083208 30083231 30010612 30010613 109154 -109110 -30083231"/>
    </vehicle>
    <vehicle id="truck29700_15" depart="29800.08">
        <route edges="109739 109728 109716 109685 109616 11485062"/>
    </vehicle>
    <vehicle id="truck29700_16" depart="29805.36">
        <route edges="108388 108327 108247 30001420"/>
    </vehicle>
    <vehicle id="truck29700_17" depart="29805.77">
        <route edges="-108877 30029962 30029963 108726 108555 30029999 30030000 108322 3648605"/>
    </vehicle>
    <vehicle id="truck29700_18" depart="29806.35">
        <route edges="13232758 5087274 109688 30122712 30122713 30107359 30107360 109340 109263 109125"/>
    </vehicle>
    <vehicle id="truck29700_19" depart="29806.94">
        <route edges="7155256 4605051 30140177 30140178 109739 109729 109542 109522 109448"/>
    </vehicle>
    <vehicle id="truck29700_20" depart="29828.69">
        <route edges="110000 5087274 109688 30122712 30122713 30107359 30107360 109340 109262 109240 -109239"/>
    </vehicle>
    <vehicle id="truck29700_21" depart="29859.70">
        <route edges="108867 -108840 -108839 -108973 30001448 30088936 30083207 30083208 30083231 109110 109052 -108969 108942 -108850"/>
    </vehicle>
    <vehicle id="truck29700_22" depart="29901.24">
        <route edges="-108583 -108714 -108828 -108973 30001448 30088936 30083207 30083208 30083231 30010612 30010613 30071791 30071792"/>
    </vehicle>
    <vehicle id="truck29700_23" depart="29953.67">
        <route edges="13232758 7155256 4605051 30140177 30140178 109739 109729 109542 109522 109449 -109448"/>
    </vehicle>
    <vehicle id="truck29700_24" depart="29953.83">
        <route edges="109516 30001462 30001463 109285 109176"/>
    </vehicle>
    <vehicle id="truck29700_25" depart="29957.14">
        <route edges="30075799 9638455 -30030000 -30029999"/>
    </vehicle>
    <vehicle id="truck29700_26" depart="29963.89">
        <route edges="3648605 3648609 107930 107795 107766 107597 107543"/>
    </vehicle>
    <vehicle id="truck29700_27" depart="29987.38">
        <route edges="30001448 30088936 30083207 30083208 30083231 109110 109052 -108969 108942 -108850 108851"/>
    </vehicle>
    <vehicle id="truck29700_28" depart="29988.04">
        <route edges="-108134 -108115"/>
    </vehicle>
    <vehicle id="truck29700_29" depart="29995.80">
        <route edges="9011650 109516 30001462 30001463 109285 109176 -30020570 -30071792"/>
    </vehicle>
    <vehicle id="truck29700_30" depart="30006.72">
        <route edges="109448 -109449 -109522 -109542 109541 109525 109289 109166 -30001445"/>
    </vehicle>
    <vehicle id="truck29700_31" depart="30015.82">
        <route edges="-109525 109524 -109615 109525 109289 109166 -30001445 -30001444"/>
    </vehicle>
    <vehicle id="truck29700_32" depart="30033.58">
        <route edges="2146326 30001448 30088936 30083207 30083208 30083231 109110 109052 -108969 108942 -108850 108851 108772"/>
    </vehicle>
    <vehicle id="truck29700_33" depart="30034.82">
        <route edges="-109096 -109124 -109263 109262 109239"/>
    </vehicle>
    <vehicle id="truck29700_34" depart="30036.84">
        <route edges="6541762 14673433 3644393 20146476 20146485"/>
    </vehicle>
    <vehicle id="truck29700_35" depart="30037.38">
        <route edges="-109239 -109262 109263 109124 109096 -109211 -109221"/>
    </vehicle>
    <vehicle id="truck29700_36" depart="30038.63">
        <route edges="-108133 -108204 108205 108134 108133 108031 107941 6793439"/>
    </vehicle>
    <vehicle id="truck29700_37" depart="30050.28">
        <route edges="110000 5087274"/>
    </vehicle>
    <vehicle id="truck29700_38" depart="30071.36">
        <route edges="108388 108327 108247 30001420 30001421 6786837 108126 4666869 108035 108027"/>
    </vehicle>
    <vehicle id="truck29700_39" depart="30081.80">
        <route edges="6541762 14673433 3644393 20146476 20146477"/>
    </vehicle>
    <vehicle id="truck29700_40" depart="30086.09">
        <route edges="4605051 30140177 30140178 109739 109728 109716 109685"/>
    </vehicle>
    <vehicle id="truck29700_41" depart="30097.38">
        <route edges="110000 5087274 109688 30122712 30122713 9910076 109360 108915 108596 108537 7204446 108103 6541762 7204482 7204470 107431"/>
    </vehicle>
    <vehicle id="truck29700_42" depart="30103.60">
        <route edges="2146326 108973 108839 108840 -108867 -108839 -108973"/>
    </vehicle>
    <vehicle id="truck29700_43" depart="30121.79">
        <route edges="108388 108327 108247 30001420 30001421 6786837 108126 4666869 108035 108027"/>
    </vehicle>
    <vehicle id="truck29700_44" depart="30143.36">
        <route edges="107613 107563 107461 107307 107238"/>
    </vehicle>
    <vehicle id="truck29700_45" depart="30144.98">
        <route edges="13232758 5087274 109688 30122712 30122713 30107359 30107360 109340 109263 109124"/>
    </vehicle>
    <vehicle id="truck29700_46" depart="30154.73">
        <route edges="30075799 9638455 -30030000 -30029999"/>
    </vehicle>
    <vehicle id="truck29700_47" depart="30174.93">
        <route edges="-5101676 -108735 -30001427"/>
    </vehicle>
    <vehicle id="truck29700_48" depart="30194.58">
        <route edges="-108583 -108714 -108828 -108973 30001448 30088936 30083207 30083208 30083231 109110 109052 109009 109021"/>
    </vehicle>
    <vehicle id="truck29700_49" depart="30202.56">
        <route edges="-109524 -109541 -109729 109728 109716 109685 109616 11485062 9638451 3497265"/>
    </vehicle>
    <vehicle id="truck29700_50" depart="30216.09">
        <route edges="-109052 -109154 30071791 30071792 30020570 30020544 30020545 109044 108942 108797 108611 108260 20050651 20050652"/>
    </vehicle>
    <vehicle id="truck29700_51" depart="30225.03">
        <route edges="109044 108969 -109052 -109154 -30010613 -30010612 109110"/>
    </vehicle>
    <vehicle id="truck29700_52" depart="30256.40">
        <route edges="109615 -109524 -109541 -109729 109728 109716 109685 109616 11485062 9638451 3497265"/>
    </vehicle>
    <vehicle id="truck29700_53" depart="30266.05">
        <route edges="110000 5087274 109688 30122712 30122713 30107359 30107360 109340 109263 109124 109096 109024"/>
    </vehicle>
    <vehicle id="truck29700_54" depart="30268.65">
        <route edges="109009 -109010 -109052 -109110 -30083231 -30083208 -30083207 -30088936 -30001448 108973 108828 108714"/>
    </vehicle>
    <vehicle id="truck29700_55" depart="30284.29">
        <route edges="6541762 14673433 3644393 20146476 20146477"/>
    </vehicle>
    <vehicle id="truck29700_56" depart="30305.27">
        <route edges="109728 109716 109685 109616 11485062 9638451 109516 30001462 30001463 109285 109176 -30020570 -30071792 -30071791 -30010613 -30010612 109110"/>
    </vehicle>
    <vehicle id="truck29700_57" depart="30327.06">
        <route edges="-30001448 108973 108839 108840 -108867 -108839 -108973 30001448 30088936 30083207 30083208 30083231 109110 -109154"/>
    </vehicle>
    <vehicle id="truck29700_58" depart="30330.87">
        <route edges="107766 107597"/>
    </vehicle>
    <vehicle id="truck29700_59" depart="30335.62">
        <route edges="107389 107212 107210"/>
    </vehicle>
    <vehicle id="truck29700_60" depart="30361.56">
        <route edges="30001462 30001463 109285 109176 -30020570 -30071792 -30071791 -30010613 -30010612 109110"/>
    </vehicle>
    <vehicle id="truck29700_61" depart="30371.44">
        <route edges="108103 6541762 14673433 3644393 20146476 20146477"/>
    </vehicle>
    <vehicle id="truck29700_62" depart="30375.55">
        <route edges="110000 5087274 109688 30122712 30122713 30107359 30107360 109340 109262 109239 -109240 -109262 -109340 -30107360 -30107359"/>
    </vehicle>
    <vehicle id="truck29700_63" depart="30375.78">
        <route edges="109506"/>
    </vehicle>
    <vehicle id="truck29700_64" depart="30377.14">
        <route edges="30075799 9638455 -30030000 -30029999"/>
    </vehicle>
    <vehicle id="truck29700_65" depart="30378.04">
        <route edges="6541762 14673433 3644393 20146476 20146485"/>
    </vehicle>
    <vehicle id="truck29700_66" depart="30379.09">
        <route edges="109052 109009 109021"/>
    </vehicle>
    <vehicle id="truck29700_67" depart="30385.36">
        <route edges="-109009 -109052 -109110 -30083231 -30083208 -30083207 -30088936 -30001448 108973 108839 108840 -108867 -108839"/>
    </vehicle>
    <vehicle id="truck29700_68" depart="30398.77">
        <route edges="107402 107212 107210"/>
    </vehicle>
    <vehicle id="truck29700_69" depart="30399.43">
        <route edges="108797 108611 108260 -108287"/>
    </vehicle>
    <vehicle id="truck29700_70" depart="30410.66">
        <route edges="30039287 30001418 109138"/>
    </vehicle>
    <vehicle id="truck29700_71" depart="30412.42">
        <route edges="30075799 9638455 -30030000 -30029999"/>
    </vehicle>
    <vehicle id="truck29700_72" depart="30423.13">
        <route edges="109010 -109009 -109052 -109110 -30083231 -30083208 -30083207 -30088936 -30001448 108973 108839 108840 -108867 -108839 -108973 30001448 30088936 30083207 30083208"/>
    </vehicle>
    <vehicle id="truck29700_73" depart="30426.15">
        <route edges="110000 5087274 109688 30122712 30122713 30107359 30107360 109340 109263 109124 109096 109024"/>
    </vehicle>
    <vehicle id="truck29700_74" depart="30431.52">
        <route edges="109110 -109154 30071791 30071792 30020570 30020544 30020545 109044 108969 -109052"/>
    </vehicle>
    <vehicle id="truck29700_75" depart="30439.67">
        <route edges="-30020570 -30071792 -30071791 109154 109052 -108969 108942 108797 108611 108260"/>
    </vehicle>
    <vehicle id="truck29700_76" depart="30443.81">
        <route edges="2146326 108973 108839 108840 -108867 -108839"/>
    </vehicle>
    <vehicle id="truck29700_77" depart="30472.57">
        <route edges="-109052 -109154 30071791 30071792 30020570"/>
    </vehicle>
    <vehicle id="truck29700_78" depart="30481.74">
        <route edges="-109262 -109340 -30107360 -30107359 9910076 109360 108915 108596 108537 7204446 108103 6541762 14673433 3644393 20146476 20146477"/>
    </vehicle>
    <vehicle id="truck29700_79" depart="30489.72">
        <route edges="109010 -109009 -109052 -109154 30071791 30071792 30020570"/>
    </vehicle>
    <vehicle id="truck29700_80" depart="30498.93">
        <route edges="30001463 109285 109176 30020544 30020545 109044 108969 109010 -109009"/>
    </vehicle>
    <vehicle id="truck29700_81" depart="30502.03">
        <route edges="-108828 -108973 30001448 30088936 30083207 30083208 30083231 109110 109052 109009 109021"/>
    </vehicle>
    <vehicle id="truck29700_82" depart="30505.97">
        <route edges="-30083231"/>
    </vehicle>
    <vehicle id="truck29700_83" depart="30512.30">
        <route edges="9011650 109516 30001462 30001463 109285 109176 30020544 30020545 109044 108942 108797 108611 108260 20050651 20050652 107897 6341039 107613 107563 107463"/>
    </vehicle>
    <vehicle id="truck29700_84" depart="30514.84">
        <route edges="109211 -109096 -109124 -109263 109262 109239 -109240 -109262 109263 109124 109096 -109211"/>
    </vehicle>
    <vehicle id="truck29700_85" depart="30515.72">
        <route edges="30075799 9638455 -30030000 -30029999"/>
    </vehicle>
    <vehicle id="truck29700_86" depart="30537.68">
        <route edges="9011650 109516 30001462 30001463 109285 109176 -30020570 -30071792 -30071791 -30010613 -30010612 -30083231 -30083208 -30083207 -30088936 -30001448"/>
    </vehicle>
    <vehicle id="truck29700_87" depart="30552.52">
        <route edges="-108736 -108851 -109021 -109009 -109052 -109154 30071791"/>
    </vehicle>
    <vehicle id="truck29700_88" depart="30555.06">
        <route edges="108604 108525 108294"/>
    </vehicle>
    <vehicle id="truck29700_89" depart="30555.55">
        <route edges="30029962 30029963 108726 108555 30029999 30030000 108322 3648605 3648609 107930 107795 107766 107598 3633149 107241 107226"/>
    </vehicle>
    <vehicle id="truck29700_90" depart="30565.96">
        <route edges="30001426 30001427 108726 108555 30029999 30030000 108322 108126 4666869 108035 108027 107979"/>
    </vehicle>
    <vehicle id="truck29700_91" depart="30566.90">
        <route edges="107766 107598 3633149 107241 107226 107163 107036"/>
    </vehicle>
    <vehicle id="truck29700_92" depart="30572.89">
        <route edges="110000 5087274"/>
    </vehicle>
    <vehicle id="truck29700_93" depart="30587.40">
        <route edges="30029999 30030000 108321"/>
    </vehicle>
    <vehicle id="truck29700_94" depart="30587.98">
        <route edges="109010 -109009 -108969 108942"/>
    </vehicle>
    <vehicle id="truck29700_95" depart="30591.45">
        <route edges="-109009 -109052 -109110 -30083231 -30083208 -30083207 108983 108814"/>
    </vehicle>
    <vehicle id="truck29700_96" depart="30593.67">
        <route edges="30010613 109154 -109110 -30083231 -30083208 -30083207 -30088936 -30001448"/>
    </vehicle>
<!-- begin="30600.0" end="31500.0" -->
    <vehicle id="truck30600_0" depart="30646.64">
        <route edges="7155256 4605051 30140177 30140178 109739 109729 109541 109525 109289 109166"/>
    </vehicle>
    <vehicle id="truck30600_1" depart="30657.04">
        <route edges="108009 107831"/>
    </vehicle>
    <vehicle id="truck30600_2" depart="30659.85">
        <route edges="109524 -109615 -109541 109542 109522 109449 -109448"/>
    </vehicle>
    <vehicle id="truck30600_3" depart="30672.21">
        <route edges="30071791 30071792 30020570 30020544 30020545 109044 108969 -109052 -109110 30010612 30010613"/>
    </vehicle>
    <vehicle id="truck30600_4" depart="30678.23">
        <route edges="107831 -3644393 -14673433 7204482 7204470 107430"/>
    </vehicle>
    <vehicle id="truck30600_5" depart="30691.60">
        <route edges="7155256 4605051 30140177 30140178 109739 109729 109541 109525 109289 109166 -30001445 -30001444"/>
    </vehicle>
    <vehicle id="truck30600_6" depart="30700.84">
        <route edges="-108704 -108840 -108839 -108973 30001448 30088936 30083207 30083208 30083231"/>
    </vehicle>
    <vehicle id="truck30600_7" depart="30703.35">
        <route edges="109154 109052 109010 -109009"/>