<?xml version="1.0" encoding="UTF-8"?>

<!-- generated on 2024-10-16 17:02:44.473420 by gtfs2pt.py UNKNOWN
<configuration>
    <gtfs value="data/raw/ttc-routes-and-schedules/TTC_Routes_and_Schedules_Data.zip"/>
    <date value="20240813"/>
    <modes value="bus"/>
    <vtype-output value="data/sumo_networks/bendale-glen_andrew/bendale-glen_andrew_public_transport_vtype.rou.xml"/>
    <begin value="28800.0"/>
    <end value="34200.0"/>
    <network value="data/sumo_networks/bendale-glen_andrew/bendale-glen_andrew_local.net.xml"/>
    <route-output value="data/sumo_networks/bendale-glen_andrew/bendale-glen_andrew_public_transport.rou.xml"/>
    <additional-output value="data/sumo_networks/bendale-glen_andrew/bendale-glen_andrew_gtfs_stops_routes.add.xml"/>
</configuration>
-->

<routes xmlns:xsi="http://www.w3.org/2001/XMLSchema-instance" xsi:noNamespaceSchemaLocation="http://sumo.dlr.de/xsd/routes_file.xsd">
    <route id="47511132" edges="110000">
        <stop busStop="47511132.4" duration="10" until="0"/> <!-- Midland Ave at Lawrence Ave East South Side -->
    </route>
    <route id="47511133" edges="110000">
        <stop busStop="47511132.4" duration="10" until="0"/> <!-- Midland Ave at Lawrence Ave East South Side -->
    </route>
    <route id="47511276" edges="107587">
        <stop busStop="47511276.0" duration="10" until="0"/> <!-- McCowan Rd at Triton Rd -->
    </route>
    <route id="47511277" edges="107738">
        <stop busStop="47511277.0" duration="10" until="0"/> <!-- McCowan Rd at Triton Rd -->
    </route>
    <route id="47511292" edges="107738 107587 107563 107461 107307">
        <stop busStop="47511292.1" duration="10" until="0"/> <!-- Triton Rd at Borough Dr -->
        <stop busStop="47511292.2" duration="10" until="49"/> <!-- Scarborough Centre Station -->
        <stop busStop="47511292.3" duration="10" until="126"/> <!-- Triton Rd at McCowan Rd -->
        <stop busStop="47511292.4" duration="10" until="199"/> <!-- McCowan Rd at 300 Consilium Pl -->
    </route>
    <route id="47511340" edges="107738 107587 107563 107461 107307">
        <stop busStop="47511292.1" duration="10" until="0"/> <!-- Triton Rd at Borough Dr -->
        <stop busStop="47511292.2" duration="10" until="49"/> <!-- Scarborough Centre Station -->
        <stop busStop="47511292.3" duration="10" until="126"/> <!-- Triton Rd at McCowan Rd -->
        <stop busStop="47511292.4" duration="10" until="199"/> <!-- McCowan Rd at 300 Consilium Pl -->
    </route>
    <route id="47511555" edges="107738">
        <stop busStop="47511277.0" duration="10" until="0"/> <!-- McCowan Rd at Triton Rd -->
    </route>
    <route id="47511566" edges="107738 107587 107563 107461 107307">
        <stop busStop="47511566.0" duration="10" until="0"/> <!-- Scarborough Centre Station -->
        <stop busStop="47511292.3" duration="10" until="126"/> <!-- Triton Rd at McCowan Rd -->
        <stop busStop="47511292.4" duration="10" until="188"/> <!-- McCowan Rd at 300 Consilium Pl -->
    </route>
    <route id="47511624" edges="108537">
        <stop busStop="47511624.3" duration="10" until="0"/> <!-- Midland Ave at Ellesmere Rd South Side -->
    </route>
    <route id="47511632" edges="110000">
        <stop busStop="47511132.4" duration="10" until="0"/> <!-- Midland Ave at Lawrence Ave East South Side -->
    </route>
    <route id="47511635" edges="110000">
        <stop busStop="47511132.4" duration="10" until="0"/> <!-- Midland Ave at Lawrence Ave East South Side -->
    </route>
    <route id="47511717" edges="107738 107587 107563 107461 107307">
        <stop busStop="47511292.1" duration="10" until="0"/> <!-- Triton Rd at Borough Dr -->
        <stop busStop="47511717.3" duration="10" until="43"/> <!-- Scarborough Centre Station -->
        <stop busStop="47511292.3" duration="10" until="128"/> <!-- Triton Rd at McCowan Rd -->
        <stop busStop="47511292.4" duration="10" until="199"/> <!-- McCowan Rd at 300 Consilium Pl -->
    </route>
    <route id="47511750" edges="108388">
        <stop busStop="47511750.1" duration="10" until="0"/> <!-- Ellesmere Rd at Midland Ave East Side -->
    </route>
    <route id="47511766" edges="107738 107587 107563 107461 107307">
        <stop busStop="47511292.1" duration="10" until="0"/> <!-- Triton Rd at Borough Dr -->
        <stop busStop="47511717.3" duration="10" until="43"/> <!-- Scarborough Centre Station -->
        <stop busStop="47511292.3" duration="10" until="128"/> <!-- Triton Rd at McCowan Rd -->
        <stop busStop="47511292.4" duration="10" until="199"/> <!-- McCowan Rd at 300 Consilium Pl -->
    </route>
    <route id="47511806" edges="107738">
        <stop busStop="47511277.0" duration="10" until="0"/> <!-- McCowan Rd at Triton Rd -->
    </route>
    <route id="47511865" edges="107738 107587 107563 107461 107307">
        <stop busStop="47511865.0" duration="10" until="0"/> <!-- Scarborough Centre Station -->
        <stop busStop="47511292.3" duration="10" until="92"/> <!-- Triton Rd at McCowan Rd -->
        <stop busStop="47511292.4" duration="10" until="155"/> <!-- McCowan Rd at 300 Consilium Pl -->
    </route>
    <route id="47511957" edges="107738">
        <stop busStop="47511957.2" duration="10" until="0"/> <!-- Scarborough Centre Station -->
    </route>
    <route id="47511958" edges="110000">
        <stop busStop="47511132.4" duration="10" until="0"/> <!-- Midland Ave at Lawrence Ave East South Side -->
    </route>
    <route id="47511963" edges="110000">
        <stop busStop="47511132.4" duration="10" until="0"/> <!-- Midland Ave at Lawrence Ave East South Side -->
    </route>
    <route id="47512024" edges="108388">
        <stop busStop="47511750.1" duration="10" until="0"/> <!-- Ellesmere Rd at Midland Ave East Side -->
    </route>
    <route id="47512025" edges="6793439">
        <stop busStop="47512025.5" duration="10" until="0"/> <!-- Ellesmere Rd at McCowan Rd East Side -->
    </route>
    <route id="47512030" edges="107738 107587">
        <stop busStop="47511292.1" duration="10" until="0"/> <!-- Triton Rd at Borough Dr -->
        <stop busStop="47512030.1" duration="10" until="59"/> <!-- Scarborough Centre Station -->
        <stop busStop="47511292.3" duration="10" until="134"/> <!-- Triton Rd at McCowan Rd -->
    </route>
    <route id="47512091" edges="107738">
        <stop busStop="47511277.0" duration="10" until="0"/> <!-- Bushby Dr at McCowan Rd - McCowan Rt Station -->
    </route>
    <route id="47512134" edges="6341039">
        <stop busStop="47512134.4" duration="10" until="0"/> <!-- Grangeway Ave at Progress Ave South Side -->
    </route>
    <route id="47512140" edges="107738">
        <stop busStop="47512140.0" duration="10" until="0"/> <!-- Scarborough Centre Station -->
    </route>
    <route id="47512165" edges="107738 107587 107563 107461 107307">
        <stop busStop="47512140.0" duration="10" until="0"/> <!-- Scarborough Centre Station -->
        <stop busStop="47511292.3" duration="10" until="96"/> <!-- Triton Rd at McCowan Rd -->
        <stop busStop="47511292.4" duration="10" until="172"/> <!-- McCowan Rd at 300 Consilium Pl -->
    </route>
    <route id="47512620" edges="107738 107587">
        <stop busStop="47511717.3" duration="10" until="0"/> <!-- Scarborough Centre Station -->
        <stop busStop="47511292.3" duration="10" until="180"/> <!-- Triton Rd at McCowan Rd -->
    </route>
    <route id="47512621" edges="-108772 -108851 -109021 -109009 -108969 108942 -108850 -109021 -109009 -109052 -109154 30071791 30071792 30020570 30020544 30020545 109044 108969 -109052 -109154 30071791 30071792 30020570 30020544">
        <stop busStop="47512621.5" duration="10" until="0"/> <!-- McCowan Rd at Brimorton Dr -->
        <stop busStop="47512621.6" duration="10" until="43"/> <!-- McCowan Rd at Meldazy Dr (North) -->
        <stop busStop="47512621.7" duration="10" until="76"/> <!-- McCowan Rd at Meldazy Dr (South) -->
        <stop busStop="47512621.8" duration="10" until="117"/> <!-- McCowan Rd at St Andrews Rd -->
        <stop busStop="47512621.9" duration="10" until="153"/> <!-- McCowan Rd at Benleigh Dr -->
    </route>
    <route id="47512628" edges="-108772 -108851 -109021 -109009 -108969 108942 -108850 -109021 -109009 -109052 -109154 30071791 30071792 30020570 30020544 30020545 109044 108969 -109052 -109154 30071791 30071792 30020570 30020544">
        <stop busStop="47512621.5" duration="10" until="0"/> <!-- McCowan Rd at Brimorton Dr -->
        <stop busStop="47512621.6" duration="10" until="43"/> <!-- McCowan Rd at Meldazy Dr (North) -->
        <stop busStop="47512621.7" duration="10" until="76"/> <!-- McCowan Rd at Meldazy Dr (South) -->
        <stop busStop="47512621.8" duration="10" until="117"/> <!-- McCowan Rd at St Andrews Rd -->
        <stop busStop="47512621.9" duration="10" until="153"/> <!-- McCowan Rd at Benleigh Dr -->
    </route>
    <route id="47512726" edges="9011650 109516 30001462 30001463 109285 109176 30020544 30020545 109044 108942 108797">
        <stop busStop="47512726.1" duration="10" until="0"/> <!-- McCowan Rd at Hollyhedge Dr (North) -->
        <stop busStop="47512726.2" duration="10" until="41"/> <!-- McCowan Rd at Lawrence Ave East Scarborough General Hospital -->
        <stop busStop="47512726.3" duration="10" until="107"/> <!-- McCowan Rd at Benleigh Dr -->
        <stop busStop="47512726.4" duration="10" until="146"/> <!-- McCowan Rd at St Andrews Rd -->
        <stop busStop="47512726.5" duration="10" until="174"/> <!-- McCowan Rd at Bellechasse St North Side -->
        <stop busStop="47512726.6" duration="10" until="222"/> <!-- McCowan Rd at Meldazy Dr (North) North Side -->
    </route>
    <route id="47512727" edges="9011650 109516 30001462 30001463 109285 109176 30020544 30020545 109044 108942 108797 108611 108260 20050651 20050652">
        <stop busStop="47512726.1" duration="10" until="0"/> <!-- McCowan Rd at Hollyhedge Dr (North) -->
        <stop busStop="47512726.2" duration="10" until="41"/> <!-- McCowan Rd at Lawrence Ave East Scarborough General Hospital -->
        <stop busStop="47512726.3" duration="10" until="107"/> <!-- McCowan Rd at Benleigh Dr -->
        <stop busStop="47512726.4" duration="10" until="146"/> <!-- McCowan Rd at St Andrews Rd -->
        <stop busStop="47512726.5" duration="10" until="174"/> <!-- McCowan Rd at Bellechasse St North Side -->
        <stop busStop="47512726.6" duration="10" until="222"/> <!-- McCowan Rd at Meldazy Dr (North) North Side -->
        <stop busStop="47512727.7" duration="10" until="258"/> <!-- McCowan Rd at Brimorton Dr -->
        <stop busStop="47512727.8" duration="10" until="326"/> <!-- McCowan Rd at Huronia Gate -->
        <stop busStop="47512727.9" duration="10" until="402"/> <!-- McCowan Rd at Ellesmere Rd -->
    </route>
    <route id="47512729" edges="109176 30020544 30020545 109044 108942 108797 108611 108260 20050651 20050652">
        <stop busStop="47512726.4" duration="10" until="0"/> <!-- McCowan Rd at St Andrews Rd -->
        <stop busStop="47512726.5" duration="10" until="28"/> <!-- McCowan Rd at Bellechasse St North Side -->
        <stop busStop="47512726.6" duration="10" until="76"/> <!-- McCowan Rd at Meldazy Dr (North) North Side -->
        <stop busStop="47512727.7" duration="10" until="112"/> <!-- McCowan Rd at Brimorton Dr -->
        <stop busStop="47512727.8" duration="10" until="180"/> <!-- McCowan Rd at Huronia Gate -->
        <stop busStop="47512727.9" duration="10" until="256"/> <!-- McCowan Rd at Ellesmere Rd -->
    </route>
    <route id="47513658" edges="107738">
        <stop busStop="47511277.0" duration="10" until="0"/> <!-- McCowan Rd at Triton Rd -->
    </route>
    <route id="47513702" edges="107738 107587 107563 107461 107307">
        <stop busStop="47511865.0" duration="10" until="0"/> <!-- Scarborough Centre Station -->
        <stop busStop="47511292.3" duration="10" until="113"/> <!-- Triton Rd at McCowan Rd -->
        <stop busStop="47511292.4" duration="10" until="190"/> <!-- McCowan Rd at 300 Consilium Pl -->
    </route>
    <route id="47513716" edges="107738">
        <stop busStop="47511865.0" duration="10" until="0"/> <!-- Scarborough Centre Station -->
    </route>
    <route id="47514770" edges="-109506 -109524 -109541 -109729 109728 109716 109686">
        <stop busStop="47514770.11" duration="10" until="0"/> <!-- Brimley Rd at Britwell Ave -->
        <stop busStop="47514770.12" duration="10" until="42"/> <!-- Brimley Rd at Lawrence Ave East -->
    </route>
    <route id="47514830" edges="20035249 109686 30001364 30001365 30001367 30039277 30039278 30039286 30039287 30001418 109138 30001441 30029992 30029993 30075799 9638455 108322 3648605 3648609 107930">
        <stop busStop="47514830.1" duration="10" until="0"/> <!-- Brimley Rd at Lawrence Ave East -->
        <stop busStop="47514830.2" duration="10" until="50"/> <!-- Brimley Rd at Britwell Ave -->
        <stop busStop="47514830.3" duration="10" until="93"/> <!-- Brimley Rd at Dorcot Ave -->
        <stop busStop="47514830.4" duration="10" until="144"/> <!-- Brimley Rd at St Andrews Rd -->
        <stop busStop="47514830.5" duration="10" until="193"/> <!-- Brimley Rd at Brimorton Dr -->
        <stop busStop="47514830.6" duration="10" until="241"/> <!-- Brimley Rd at Bernadine St -->
        <stop busStop="47514830.7" duration="10" until="268"/> <!-- Brimley Rd at Ellesmere Rd -->
        <stop busStop="47514830.8" duration="10" until="307"/> <!-- Brimley Rd at Omni Dr North Side -->
        <stop busStop="47514830.9" duration="10" until="333"/> <!-- Triton Rd at Borough Dr -->
    </route>
    <route id="47514837" edges="30001365 30001367 30039277 30039278 30039286 30039287 30001418 109138 30001441 30029992 30029993 30075799 9638455 108322 3648605 3648609 107930">
        <stop busStop="47514830.2" duration="10" until="0"/> <!-- Brimley Rd at Britwell Ave -->
        <stop busStop="47514830.3" duration="10" until="43"/> <!-- Brimley Rd at Dorcot Ave -->
        <stop busStop="47514830.4" duration="10" until="94"/> <!-- Brimley Rd at St Andrews Rd -->
        <stop busStop="47514830.5" duration="10" until="143"/> <!-- Brimley Rd at Brimorton Dr -->
        <stop busStop="47514830.6" duration="10" until="191"/> <!-- Brimley Rd at Bernadine St -->
        <stop busStop="47514830.7" duration="10" until="218"/> <!-- Brimley Rd at Ellesmere Rd -->
        <stop busStop="47514830.8" duration="10" until="257"/> <!-- Brimley Rd at Omni Dr North Side -->
        <stop busStop="47514830.9" duration="10" until="283"/> <!-- Triton Rd at Borough Dr -->
    </route>
    <route id="47520336" edges="107738 107587">
        <stop busStop="47511292.1" duration="10" until="0"/> <!-- Triton Rd at Borough Dr -->
        <stop busStop="47520336.3" duration="10" until="109"/> <!-- Scarborough Centre Station -->
        <stop busStop="47511292.3" duration="10" until="226"/> <!-- Triton Rd at McCowan Rd -->
    </route>
    <route id="47520337" edges="6793439">
        <stop busStop="47512025.5" duration="10" until="0"/> <!-- Ellesmere Rd at McCowan Rd East Side -->
    </route>
    <route id="47520343" edges="107738 107587">
        <stop busStop="47511292.1" duration="10" until="0"/> <!-- Triton Rd at Borough Dr -->
        <stop busStop="47520336.3" duration="10" until="98"/> <!-- Scarborough Centre Station -->
        <stop busStop="47511292.3" duration="10" until="196"/> <!-- Triton Rd at McCowan Rd -->
    </route>
    <route id="47520476" edges="107738">
        <stop busStop="47511957.2" duration="10" until="0"/> <!-- Scarborough Centre Station -->
    </route>
    <route id="47520477" edges="110000">
        <stop busStop="47511132.4" duration="10" until="0"/> <!-- Midland Ave at Lawrence Ave East South Side -->
    </route>
    <route id="47520483" edges="110000">
        <stop busStop="47511132.4" duration="10" until="0"/> <!-- Midland Ave at Lawrence Ave East South Side -->
    </route>
    <route id="47521666" edges="108009">
        <stop busStop="47521666.5" duration="10" until="0"/> <!-- Progress Ave at Midland Ave -->
    </route>
    <route id="47521667" edges="-3644393 -14673433 7204482 107831">
        <stop busStop="47521667.1" duration="10" until="0"/> <!-- Progress Ave at Cosentino Dr West Side -->
    </route>
    <route id="47521854" edges="108009 107831 20146476 20146477">
        <stop busStop="47521854.3" duration="10" until="0"/> <!-- 77 Progress Ave -->
        <stop busStop="47521854.4" duration="10" until="49"/> <!-- Progress Ave at Midland Ave -->
        <stop busStop="47521854.5" duration="10" until="94"/> <!-- Progress Ave at Cosentino Dr -->
        <stop busStop="47521854.6" duration="10" until="156"/> <!-- Progress Ave at Schick Crt -->
        <stop busStop="47521854.7" duration="10" until="199"/> <!-- Progress Ave at Brimley Rd -->
    </route>
    <route id="47521900" edges="108009 107831 20146476 20146477">
        <stop busStop="47521854.3" duration="10" until="0"/> <!-- 77 Progress Ave -->
        <stop busStop="47521854.4" duration="10" until="49"/> <!-- Progress Ave at Midland Ave -->
        <stop busStop="47521854.5" duration="10" until="94"/> <!-- Progress Ave at Cosentino Dr -->
        <stop busStop="47521854.6" duration="10" until="156"/> <!-- Progress Ave at Schick Crt -->
        <stop busStop="47521854.7" duration="10" until="199"/> <!-- Progress Ave at Brimley Rd -->
    </route>
    <route id="47521938" edges="108009 107831 20146476 20146477">
        <stop busStop="47521854.3" duration="10" until="0"/> <!-- 77 Progress Ave -->
        <stop busStop="47521854.4" duration="10" until="49"/> <!-- Progress Ave at Midland Ave -->
        <stop busStop="47521854.5" duration="10" until="94"/> <!-- Progress Ave at Cosentino Dr -->
        <stop busStop="47521854.6" duration="10" until="156"/> <!-- Progress Ave at Schick Crt -->
        <stop busStop="47521854.7" duration="10" until="199"/> <!-- Progress Ave at Brimley Rd -->
    </route>
    <route id="47528571" edges="13232758 7155256 4605051 30140177">
        <stop busStop="47528571.0" duration="10" until="0"/> <!-- Lawrence Ave East at Prudential Dr East Side -->
        <stop busStop="47528571.1" duration="10" until="49"/> <!-- Lawrence Ave East at Midland Ave East Side -->
        <stop busStop="47528571.2" duration="10" until="106"/> <!-- Lawrence Ave East at Brockley Dr East Side -->
    </route>
    <route id="47528572" edges="13232758 7155256 4605051 30140177 30140178 109739 109728 109716 109685 109616 11485062 9638451">
        <stop busStop="47528571.0" duration="10" until="0"/> <!-- Lawrence Ave East at Prudential Dr East Side -->
        <stop busStop="47528571.1" duration="10" until="49"/> <!-- Lawrence Ave East at Midland Ave East Side -->
        <stop busStop="47528571.2" duration="10" until="106"/> <!-- Lawrence Ave East at Brockley Dr East Side -->
        <stop busStop="47528572.3" duration="10" until="162"/> <!-- Lawrence Ave East at Marcos Blvd -->
        <stop busStop="47528572.4" duration="10" until="223"/> <!-- Lawrence Ave East at Brimley Rd -->
        <stop busStop="47528572.5" duration="10" until="302"/> <!-- Lawrence Ave East at Barrymore Rd -->
        <stop busStop="47528572.6" duration="10" until="418"/> <!-- Lawrence Ave East at McCowan Rd Scarbourough General Hospital -->
    </route>
    <route id="47528624" edges="30140178 109739 109728 109716 109685 109616 11485062 9638451">
        <stop busStop="47528572.3" duration="10" until="0"/> <!-- Lawrence Ave East at Marcos Blvd -->
        <stop busStop="47528572.4" duration="10" until="61"/> <!-- Lawrence Ave East at Brimley Rd -->
        <stop busStop="47528572.5" duration="10" until="140"/> <!-- Lawrence Ave East at Barrymore Rd -->
        <stop busStop="47528572.6" duration="10" until="256"/> <!-- Lawrence Ave East at McCowan Rd Scarbourough General Hospital -->
    </route>
    <route id="47528759" edges="13232758">
        <stop busStop="47528759.6" duration="10" until="0"/> <!-- Lawrence Ave East at Midland Ave West Side -->
    </route>
    <route id="47528764" edges="13232758">
        <stop busStop="47528759.6" duration="10" until="0"/> <!-- Lawrence Ave East at Midland Ave West Side -->
    </route>
    <route id="47528772" edges="109616">
        <stop busStop="47528772.2" duration="10" until="0"/> <!-- Lawrence Ave East at Barrymore Rd -->
    </route>
    <route id="47529241" edges="5087274">
        <stop busStop="47529241.11" duration="10" until="0"/> <!-- Midland Ave at Midwest Rd (South) -->
    </route>
    <route id="47529249" edges="5087274">
        <stop busStop="47529241.11" duration="10" until="0"/> <!-- Midland Ave at Midwest Rd (South) -->
    </route>
    <route id="47529321" edges="110000 5087274 109688 30122712 30122713 9910076 109360 108915 108596 108537 7204446 108103 6541762 7204482 7204470">
        <stop busStop="47529321.0" duration="10" until="0"/> <!-- Midland Ave at Lawrence Ave East -->
        <stop busStop="47529321.1" duration="10" until="44"/> <!-- Midland Ave at Treewood St -->
        <stop busStop="47529321.2" duration="10" until="85"/> <!-- Midland Ave at Norbury Cres -->
        <stop busStop="47529321.3" duration="10" until="122"/> <!-- Midland Ave at Dorcot Ave -->
        <stop busStop="47529321.4" duration="10" until="167"/> <!-- Opposite 1710 Midland Ave -->
        <stop busStop="47529321.5" duration="10" until="207"/> <!-- Midland Ave at Millbridge Gate -->
        <stop busStop="47529321.6" duration="10" until="265"/> <!-- Midland Ave at Midwest Rd (North) -->
        <stop busStop="47511624.3" duration="10" until="299"/> <!-- Midland Ave at Ellesmere Rd -->
        <stop busStop="47529321.8" duration="10" until="351"/> <!-- Midland Ave at Midland Station -->
        <stop busStop="47529321.9" duration="10" until="389"/> <!-- Midland Ave at Progress Ave -->
        <stop busStop="47529321.10" duration="10" until="435"/> <!-- 2265 Midland Ave -->
    </route>
    <route id="47529331" edges="109360 108915 108596 108537 7204446 108103 6541762 7204482 7204470">
        <stop busStop="47529321.4" duration="10" until="0"/> <!-- Opposite 1710 Midland Ave -->
        <stop busStop="47529321.5" duration="10" until="48"/> <!-- Midland Ave at Millbridge Gate -->
        <stop busStop="47529321.6" duration="10" until="117"/> <!-- Midland Ave at Midwest Rd (North) -->
        <stop busStop="47511624.3" duration="10" until="158"/> <!-- Midland Ave at Ellesmere Rd -->
        <stop busStop="47529321.8" duration="10" until="222"/> <!-- Midland Ave at Midland Station -->
        <stop busStop="47529321.9" duration="10" until="268"/> <!-- Midland Ave at Progress Ave -->
        <stop busStop="47529321.10" duration="10" until="323"/> <!-- 2265 Midland Ave -->
    </route>
    <route id="47537206" edges="107738 107587 107563 107463">
        <stop busStop="47511566.0" duration="10" until="0"/> <!-- Scarborough Centre Station -->
        <stop busStop="47511292.3" duration="10" until="167"/> <!-- Triton Rd at McCowan Rd -->
        <stop busStop="47537206.2" duration="10" until="287"/> <!-- Grangeway Ave at Progress Ave -->
    </route>
    <route id="47537240" edges="107738">
        <stop busStop="47511566.0" duration="10" until="0"/> <!-- Scarborough Centre Station -->
    </route>
    <route id="47537274" edges="107738">
        <stop busStop="47511277.0" duration="10" until="0"/> <!-- Bushby Dr at McCowan Rd - McCowan Rt Station -->
    </route>
    <route id="47537300" edges="107738">
        <stop busStop="47511277.0" duration="10" until="0"/> <!-- Bushby Dr at McCowan Rd - McCowan Rt Station -->
    </route>
    <route id="47537979" edges="110000">
        <stop busStop="47511132.4" duration="10" until="0"/> <!-- Midland Ave at Lawrence Ave East South Side -->
    </route>
    <route id="47537980" edges="110000">
        <stop busStop="47511132.4" duration="10" until="0"/> <!-- Midland Ave at Lawrence Ave East South Side -->
    </route>
    <route id="47537982" edges="110000">
        <stop busStop="47511132.4" duration="10" until="0"/> <!-- Midland Ave at Lawrence Ave East South Side -->
    </route>
    <route id="47537983" edges="110000">
        <stop busStop="47511132.4" duration="10" until="0"/> <!-- Midland Ave at Lawrence Ave East South Side -->
    </route>
    <route id="47538083" edges="107738">
        <stop busStop="47511957.2" duration="10" until="0"/> <!-- Scarborough Centre Station -->
    </route>
    <route id="47538179" edges="108388">
        <stop busStop="47511750.1" duration="10" until="0"/> <!-- Ellesmere Rd at Midland Ave East Side -->
    </route>
    <route id="47538180" edges="107738">
        <stop busStop="47511292.1" duration="10" until="0"/> <!-- Triton Rd at Borough Dr -->
        <stop busStop="47511957.2" duration="10" until="90"/> <!-- Scarborough Centre Station -->
    </route>
    <route id="47538181" edges="107738 107587">
        <stop busStop="47511292.1" duration="10" until="0"/> <!-- Triton Rd at Borough Dr -->
        <stop busStop="47512140.0" duration="10" until="37"/> <!-- Scarborough Centre Station -->
        <stop busStop="47511957.2" duration="10" until="52"/> <!-- Scarborough Centre Station -->
        <stop busStop="47511292.3" duration="10" until="115"/> <!-- Triton Rd at McCowan Rd -->
    </route>
    <route id="47538190" edges="107738">
        <stop busStop="47511292.1" duration="10" until="0"/> <!-- Triton Rd at Borough Dr -->
        <stop busStop="47511957.2" duration="10" until="90"/> <!-- Scarborough Centre Station -->
    </route>
    <route id="47539971" edges="107738">
        <stop busStop="47511957.2" duration="10" until="0"/> <!-- Scarborough Centre Station -->
    </route>
    <route id="47539973" edges="110000">
        <stop busStop="47511132.4" duration="10" until="0"/> <!-- Midland Ave at Lawrence Ave East South Side -->
    </route>
    <route id="47539993" edges="110000">
        <stop busStop="47511132.4" duration="10" until="0"/> <!-- Midland Ave at Lawrence Ave East South Side -->
    </route>
    <route id="47540006" edges="107738">
        <stop busStop="47511292.1" duration="10" until="0"/> <!-- Triton Rd at Borough Dr -->
        <stop busStop="47511566.0" duration="10" until="47"/> <!-- Scarborough Centre Station -->
    </route>
    <route id="47540016" edges="107738">
        <stop busStop="47511292.1" duration="10" until="0"/> <!-- Triton Rd at Borough Dr -->
        <stop busStop="47511566.0" duration="10" until="47"/> <!-- Scarborough Centre Station -->
    </route>
    <route id="47540052" edges="108388">
        <stop busStop="47511750.1" duration="10" until="0"/> <!-- Ellesmere Rd at Midland Ave East Side -->
    </route>
    <route id="47540631" edges="108429 108388 108327 108247 30001420 30001421 6786837 108126 4666869 108035 108027 107979 107941">
        <stop busStop="47540631.0" duration="10" until="0"/> <!-- Ellesmere Rd at East Service Rd -->
        <stop busStop="47540631.1" duration="10" until="23"/> <!-- Ellesmere Rd at Midland Ave -->
        <stop busStop="47540631.2" duration="10" until="66"/> <!-- Ellesmere Rd at Oakley Blvd East Side -->
        <stop busStop="47540631.3" duration="10" until="90"/> <!-- Ellesmere Rd at Birkdale Rd -->
        <stop busStop="47540631.4" duration="10" until="125"/> <!-- 1299 Ellesmere Rd -->
        <stop busStop="47540631.5" duration="10" until="157"/> <!-- Ellesmere Rd at Brimley Rd -->
        <stop busStop="47540631.6" duration="10" until="213"/> <!-- Ellesmere Rd at Packard Blvd -->
        <stop busStop="47540631.7" duration="10" until="242"/> <!-- Ellesmere Rd at Borough Approach East -->
        <stop busStop="47540631.8" duration="10" until="277"/> <!-- Ellesmere Rd at Saratoga Dr East Side -->
        <stop busStop="47540631.9" duration="10" until="296"/> <!-- Ellesmere Rd at McCowan Rd -->
    </route>
    <route id="47540639" edges="108035 108027 107979 107941">
        <stop busStop="47540631.6" duration="10" until="0"/> <!-- Ellesmere Rd at Packard Blvd -->
        <stop busStop="47540631.7" duration="10" until="29"/> <!-- Ellesmere Rd at Borough Approach East -->
        <stop busStop="47540631.8" duration="10" until="64"/> <!-- Ellesmere Rd at Saratoga Dr East Side -->
        <stop busStop="47540631.9" duration="10" until="83"/> <!-- Ellesmere Rd at McCowan Rd -->
    </route>
    <route id="47540738" edges="108429">
        <stop busStop="47540738.7" duration="10" until="0"/> <!-- Ellesmere Rd at Midland Ave -->
    </route>
    <route id="47540739" edges="108429">
        <stop busStop="47540738.7" duration="10" until="0"/> <!-- Ellesmere Rd at Midland Ave -->
    </route>
    <route id="47540774" edges="6793439">
        <stop busStop="47540774.1" duration="10" until="0"/> <!-- Ellesmere Rd at McCowan Rd -->
    </route>
    <route id="47541094" edges="7155256 4605051 30140177 30140178 109739 109728 109716 109685 109616 11485062 9638451">
        <stop busStop="47528571.1" duration="10" until="0"/> <!-- Lawrence Ave East at Midland Ave East Side -->
        <stop busStop="47528572.6" duration="10" until="222"/> <!-- Lawrence Ave East at McCowan Rd Scarbourough General Hospital -->
    </route>
    <route id="47541120" edges="110000">
        <stop busStop="47511132.4" duration="10" until="0"/> <!-- Midland Ave at Lawrence Ave East South Side -->
    </route>
    <route id="47541138" edges="110000">
        <stop busStop="47511132.4" duration="10" until="0"/> <!-- Midland Ave at Lawrence Ave East South Side -->
    </route>
    <route id="47542006" edges="110000">
        <stop busStop="47511132.4" duration="10" until="0"/> <!-- Midland Ave at Lawrence Ave East South Side -->
    </route>
    <route id="47542042" edges="107738">
        <stop busStop="47511292.1" duration="10" until="0"/> <!-- Triton Rd at Borough Dr -->
        <stop busStop="47511957.2" duration="10" until="87"/> <!-- Scarborough Centre Station -->