<?xml version="1.0" encoding="UTF-8"?>

<!-- generated on 2024-10-16 16:41:38 by Eclipse SUMO netconvert Version 1.20.0
<configuration xmlns:xsi="http://www.w3.org/2001/XMLSchema-instance" xsi:noNamespaceSchemaLocation="http://sumo.dlr.de/xsd/netconvertConfiguration.xsd">

    <input>
        <type-files value="data/sumo_networks/bendale-glen_andrew/bendale-glen_andrew_edge_types.typ.xml"/>
        <shapefile-prefix value="data/sumo_networks/bendale-glen_andrew/arcview/bendale-glen_andrew"/>
    </input>

    <output>
        <output-file value="data/sumo_networks/bendale-glen_andrew/bendale-glen_andrew_local.net.xml"/>
    </output>

    <projection>
        <proj.utm value="true"/>
    </projection>

    <processing>
        <geometry.min-radius.fix value="true"/>
    </processing>

    <tls_building>
        <tls.set value="13449204,13449830,13449501,13449378,13446743,13447496,13447139,13446827,13445861,13447827,13448559,13446954,13447880,13447807,13446436,13448907,13446676,13448727,13446506,13446229,13446002,13449737,13446387,13445903,13446018,13450111,13447325,13446880,20146478,13447415,13448311,13449243,30122711,13447031"/>
        <tls.rebuild value="true"/>
    </tls_building>

    <edge_removal>
        <remove-edges.isolated value="true"/>
    </edge_removal>

    <junctions>
        <no-internal-links value="true"/>
        <no-turnarounds value="true"/>
    </junctions>

    <formats>
        <shapefile.street-id value="LINK_ID"/>
        <shapefile.from-id value="REF_IN_ID"/>
        <shapefile.to-id value="NREF_IN_ID"/>
        <shapefile.type-id value="FUNC_CLASS"/>
        <shapefile.name value="ST_NAME"/>
    </formats>

</configuration>
-->

<net version="1.20" junctionCornerDetail="5" limitTurnSpeed="5.50" xmlns:xsi="http://www.w3.org/2001/XMLSchema-instance" xsi:noNamespaceSchemaLocation="http://sumo.dlr.de/xsd/net_file.xsd">

    <location netOffset="-638641.49,-4845536.08" convBoundary="0.00,0.00,2782.84,3552.95" origBoundary="-79.277214,43.749693,-79.243231,43.782238" projParameter="+proj=utm +zone=17 +ellps=WGS84 +datum=WGS84 +units=m +no_defs"/>

    <type id="201100" priority="5" numLanes="4" speed="27.78" allow="emergency passenger taxi bus coach delivery truck trailer evehicle" oneway="1"/>
    <type id="201200" priority="4" numLanes="3" speed="12.50" allow="emergency passenger taxi bus coach delivery truck trailer evehicle" oneway="1"/>
    <type id="201300" priority="3" numLanes="2" speed="12.50" allow="emergency passenger taxi bus coach delivery truck trailer evehicle" oneway="1"/>
    <type id="201500" priority="2" numLanes="2" speed="12.50" allow="emergency passenger taxi bus coach delivery truck trailer evehicle" oneway="0"/>
    <type id="201600" priority="4" numLanes="1" speed="12.50" allow="emergency passenger taxi bus coach delivery truck trailer evehicle" oneway="1"/>
    <type id="201700" priority="1" numLanes="1" speed="4.17" allow="emergency pedestrian passenger taxi motorcycle moped bicycle evehicle scooter" oneway="0"/>
    <type id="201800" priority="4" numLanes="1" speed="25.00" allow="emergency passenger taxi bus coach delivery truck trailer evehicle" oneway="1"/>
    <type id="204001" priority="1" numLanes="1" speed="5.56" allow="pedestrian motorcycle moped bicycle scooter" oneway="0"/>
    <type id="204002" priority="1" numLanes="1" speed="5.56" allow="pedestrian motorcycle moped bicycle scooter" oneway="0"/>

    <edge id="-108031" from="13446898" to="13447022" name="Saratoga Drive" priority="2" type="201500" shape="1907.09,2460.10 1913.72,2439.22 1915.62,2434.25 1919.47,2425.32 1921.49,2417.36 1925.10,2411.42 1928.31,2406.48 1937.79,2390.65 1949.54,2369.86 1958.29,2356.02">
        <lane id="-108031_0" index="0" allow="emergency passenger taxi bus coach delivery truck trailer evehicle" speed="12.50" length="116.72" shape="1906.62,2445.71 1909.19,2437.63 1911.18,2432.44 1914.91,2423.77 1917.02,2415.48 1921.04,2408.87 1924.24,2403.94 1933.64,2388.24 1945.42,2367.40 1949.32,2361.23"/>
        <lane id="-108031_1" index="1" allow="emergency passenger taxi bus coach delivery truck trailer evehicle" speed="12.50" length="116.72" shape="1909.67,2446.68 1912.21,2438.69 1914.14,2433.65 1917.95,2424.80 1920.00,2416.73 1923.74,2410.57 1926.96,2405.63 1936.41,2389.84 1948.17,2369.04 1952.02,2362.94"/>
    </edge>
    <edge id="-108115" from="13447056" to="13447121" name="Aspendale Drive" priority="2" type="201500" shape="1749.21,2335.22 1730.83,2328.89 1707.82,2322.47 1683.04,2314.01 1677.89,2311.92 1674.24,2309.85 1670.15,2307.78 1665.52,2304.69 1660.22,2300.60 1654.39,2294.49 1647.97,2286.37 1641.99,2278.26">
        <lane id="-108115_0" index="0" allow="emergency passenger taxi bus coach delivery truck trailer evehicle" speed="12.50" length="124.98" shape="1737.10,2336.13 1729.40,2333.47 1706.40,2327.05 1681.36,2318.51 1675.79,2316.25 1671.97,2314.08 1667.72,2311.93 1662.72,2308.60 1656.99,2304.17 1650.76,2297.64 1644.16,2289.29 1638.13,2281.11"/>
        <lane id="-108115_1" index="1" allow="emergency passenger taxi bus coach delivery truck trailer evehicle" speed="12.50" length="124.98" shape="1738.15,2333.10 1730.35,2330.41 1707.35,2323.99 1682.48,2315.51 1677.19,2313.36 1673.48,2311.26 1669.34,2309.16 1664.58,2305.99 1659.14,2301.79 1653.18,2295.54 1646.70,2287.34 1640.71,2279.21"/>
    </edge>
    <edge id="-108133" from="13447022" to="13447153" name="Saratoga Drive" priority="2" type="201500" shape="1958.29,2356.02 1959.30,2352.04 1961.29,2349.07 1963.68,2345.11 1965.79,2342.15 1967.63,2337.19 1969.96,2333.23 1971.47,2329.25 1974.35,2325.31 1975.52,2319.33 1976.16,2315.34 1976.35,2308.34 1977.50,2303.36 1976.54,2297.34 1975.04,2294.32 1972.54,2287.27 1967.45,2278.18 1953.59,2256.92">
        <lane id="-108133_0" index="0" allow="emergency passenger taxi bus coach delivery truck trailer evehicle" speed="12.50" length="109.83" shape="1957.00,2346.85 1957.24,2346.49 1959.66,2342.48 1961.52,2339.88 1963.28,2335.12 1965.61,2331.15 1967.21,2326.95 1969.85,2323.34 1970.80,2318.49 1971.37,2314.89 1971.56,2307.73 1972.61,2303.19 1971.92,2298.82 1970.61,2296.20 1968.15,2289.26 1963.34,2280.66 1955.38,2268.45"/>
        <lane id="-108133_1" index="1" allow="emergency passenger taxi bus coach delivery truck trailer evehicle" speed="12.50" length="109.83" shape="1960.26,2347.69 1962.34,2344.24 1964.37,2341.40 1966.18,2336.50 1968.51,2332.53 1970.05,2328.48 1972.85,2324.65 1973.95,2319.05 1974.56,2315.19 1974.75,2308.14 1975.87,2303.30 1975.00,2297.84 1973.56,2294.94 1971.08,2287.93 1966.08,2279.01 1958.06,2266.71"/>
    </edge>
    <edge id="-108134" from="13447153" to="13447056" name="Aspendale Drive" priority="2" type="201500" shape="1953.59,2256.92 1945.29,2262.77 1938.53,2266.65 1929.74,2272.49 1920.70,2278.33 1915.00,2282.23 1910.04,2287.14 1905.90,2291.06 1901.19,2295.98 1883.44,2319.66 1864.96,2346.32 1862.22,2349.28 1859.69,2354.23 1857.95,2357.20 1855.17,2362.15 1852.23,2366.10 1848.05,2369.02 1845.05,2368.97 1842.36,2368.92 1836.34,2366.81 1831.16,2362.71 1819.80,2358.51 1749.21,2335.22">
        <lane id="-108134_0" index="0" allow="emergency passenger taxi bus coach delivery truck trailer evehicle" speed="12.50" length="261.54" shape="1947.65,2266.96 1941.06,2270.74 1932.37,2276.51 1923.35,2282.33 1918.07,2285.94 1913.38,2290.58 1909.29,2294.47 1904.85,2299.09 1887.34,2322.47 1868.71,2349.34 1866.19,2352.05 1863.90,2356.54 1862.11,2359.59 1859.21,2364.77 1855.61,2369.59 1849.52,2373.85 1844.96,2373.76 1841.50,2373.70 1833.99,2371.07 1828.78,2366.95 1818.21,2363.04 1757.02,2342.85"/>
        <lane id="-108134_1" index="1" allow="emergency passenger taxi bus coach delivery truck trailer evehicle" speed="12.50" length="261.54" shape="1945.80,2264.33 1939.38,2268.01 1930.62,2273.83 1921.58,2279.66 1916.02,2283.47 1911.15,2288.29 1907.03,2292.20 1902.41,2297.01 1884.74,2320.59 1866.21,2347.33 1863.54,2350.20 1861.10,2355.00 1859.34,2358.00 1856.52,2363.02 1853.35,2367.26 1848.54,2370.63 1845.02,2370.57 1842.08,2370.51 1835.55,2368.23 1830.37,2364.13 1819.27,2360.02 1758.02,2339.81"/>
    </edge>
    <edge id="-108204" from="13447153" to="13447260" name="Saratoga Drive" priority="2" type="201500">
        <lane id="-108204_0" index="0" allow="emergency passenger taxi bus coach delivery truck trailer evehicle" speed="12.50" length="80.32" shape="1944.12,2250.98 1912.27,2200.88"/>
        <lane id="-108204_1" index="1" allow="emergency passenger taxi bus coach delivery truck trailer evehicle" speed="12.50" length="80.32" shape="1946.82,2249.26 1914.97,2199.16"/>
    </edge>
    <edge id="-108205" from="13447056" to="13447260" name="Wincrest Drive" priority="2" type="201500" shape="1749.21,2335.22 1750.78,2328.25 1752.35,2324.28 1753.75,2319.30 1755.34,2314.33 1756.42,2310.35 1759.21,2304.40 1762.16,2300.46 1766.43,2295.53 1771.44,2291.62 1782.21,2283.82 1910.50,2189.14">
        <lane id="-108205_0" index="0" allow="emergency passenger taxi bus coach delivery truck trailer evehicle" speed="12.50" length="223.01" shape="1747.52,2323.45 1747.80,2322.74 1749.16,2317.92 1750.74,2312.98 1751.89,2308.69 1755.07,2301.92 1758.42,2297.44 1763.11,2292.03 1768.56,2287.79 1779.37,2279.94 1898.91,2191.72"/>
        <lane id="-108205_1" index="1" allow="emergency passenger taxi bus coach delivery truck trailer evehicle" speed="12.50" length="223.01" shape="1750.68,2324.17 1750.83,2323.76 1752.22,2318.84 1753.81,2313.88 1754.91,2309.80 1757.83,2303.57 1760.91,2299.45 1765.33,2294.37 1770.48,2290.35 1781.26,2282.53 1900.81,2194.30"/>
    </edge>
    <edge id="-108259" from="13447265" to="13447337" name="Huronia Gate" priority="2" type="201500" shape="2258.32,2183.44 2249.03,2168.27 2229.53,2143.91 2225.05,2139.83 2219.46,2137.73 2191.25,2128.22">
        <lane id="-108259_0" index="0" allow="emergency passenger taxi bus coach delivery truck trailer evehicle" speed="12.50" length="90.79" shape="2254.23,2185.94 2245.10,2171.03 2226.02,2147.21 2222.50,2144.00 2217.84,2142.25 2202.66,2137.13"/>
        <lane id="-108259_1" index="1" allow="emergency passenger taxi bus coach delivery truck trailer evehicle" speed="12.50" length="90.79" shape="2256.96,2184.27 2247.72,2169.19 2228.36,2145.01 2224.20,2141.22 2218.92,2139.24 2203.68,2134.10"/>
    </edge>
    <edge id="-108264" from="13447163" to="13447345" name="Bernadine Street" priority="2" type="201500" shape="1677.97,2251.92 1672.15,2241.81 1654.39,2218.49 1646.85,2213.35 1625.40,2196.96 1604.44,2180.58 1580.40,2162.14 1566.17,2150.88 1559.37,2146.76 1553.69,2142.65 1548.56,2139.56 1540.91,2137.42 1498.63,2124.66">
        <lane id="-108264_0" index="0" allow="emergency passenger taxi bus coach delivery truck trailer evehicle" speed="12.50" length="225.20" shape="1673.81,2254.31 1668.15,2244.48 1651.04,2222.02 1644.04,2217.25 1622.46,2200.76 1601.51,2184.37 1577.45,2165.93 1563.42,2154.83 1556.71,2150.76 1551.04,2146.66 1546.64,2144.01 1539.57,2142.03 1507.25,2132.27"/>
        <lane id="-108264_1" index="1" allow="emergency passenger taxi bus coach delivery truck trailer evehicle" speed="12.50" length="225.20" shape="1676.58,2252.72 1670.82,2242.70 1653.27,2219.67 1645.92,2214.65 1624.42,2198.23 1603.47,2181.84 1579.42,2163.40 1565.25,2152.20 1558.48,2148.09 1552.81,2143.99 1547.92,2141.05 1540.46,2138.96 1508.17,2129.21"/>
    </edge>
    <edge id="-108282" from="13447260" to="13447362" name="Saratoga Drive" priority="2" type="201500" shape="1910.50,2189.14 1904.14,2178.02 1897.13,2167.89 1889.26,2153.75 1883.76,2146.65 1878.53,2138.55 1871.40,2132.42 1846.76,2108.98">
        <lane id="-108282_0" index="0" allow="emergency passenger taxi bus coach delivery truck trailer evehicle" speed="12.50" length="103.35" shape="1901.51,2183.10 1900.07,2180.58 1893.05,2170.43 1885.24,2156.40 1879.84,2149.43 1874.88,2141.74 1868.18,2135.99 1843.45,2112.45"/>
        <lane id="-108282_1" index="1" allow="emergency passenger taxi bus coach delivery truck trailer evehicle" speed="12.50" length="103.35" shape="1904.29,2181.51 1902.78,2178.87 1895.77,2168.74 1887.92,2154.63 1882.46,2147.57 1877.32,2139.62 1870.32,2133.61 1845.65,2110.13"/>
    </edge>
    <edge id="-108287" from="13447271" to="13447368" name="Hurley Crescent" priority="2" type="201500" shape="2174.97,2177.93 2149.52,2168.47 2144.87,2166.38 2141.59,2164.32 2137.90,2161.25 2135.22,2157.21 2104.32,2106.64">
        <lane id="-108287_0" index="0" allow="emergency passenger taxi bus coach delivery truck trailer evehicle" speed="12.50" length="105.04" shape="2171.66,2181.82 2147.70,2172.91 2142.60,2170.62 2138.77,2168.22 2134.29,2164.49 2131.17,2159.78 2105.56,2117.86"/>
        <lane id="-108287_1" index="1" allow="emergency passenger taxi bus coach delivery truck trailer evehicle" speed="12.50" length="105.04" shape="2172.77,2178.82 2148.91,2169.95 2144.11,2167.80 2140.65,2165.62 2136.70,2162.33 2133.87,2158.06 2108.29,2116.19"/>
    </edge>
    <edge id="-108294" from="13447345" to="13447378" name="Bernadine Street" priority="2" type="201500">
        <lane id="-108294_0" index="0" allow="emergency passenger taxi bus coach delivery truck trailer evehicle" speed="12.50" length="82.04" shape="1487.26,2126.14 1428.83,2107.93"/>
        <lane id="-108294_1" index="1" allow="emergency passenger taxi bus coach delivery truck trailer evehicle" speed="12.50" length="82.04" shape="1488.22,2123.09 1429.79,2104.87"/>
    </edge>
    <edge id="-108321" from="13447378" to="13447415" name="Bernadine Street" priority="2" type="201500">
        <lane id="-108321_0" index="0" allow="emergency passenger taxi bus coach delivery truck trailer evehicle" speed="12.50" length="82.88" shape="1409.00,2101.77 1352.87,2084.45"/>
        <lane id="-108321_1" index="1" allow="emergency passenger taxi bus coach delivery truck trailer evehicle" speed="12.50" length="82.88" shape="1409.94,2098.72 1353.81,2081.40"/>
    </edge>
    <edge id="-108396" from="13447314" to="13447505" name="Madrid Street" priority="2" type="201500" shape="1809.62,2147.31 1800.29,2138.14 1795.94,2133.06 1791.11,2126.97 1784.70,2118.85 1777.27,2107.72 1763.81,2088.47 1755.79,2079.33 1748.77,2073.20 1739.88,2067.04 1730.57,2059.87 1719.09,2051.66 1691.23,2030.15 1682.88,2025.00 1676.57,2021.89 1670.35,2019.77 1661.64,2017.62 1629.47,2006.03">
        <lane id="-108396_0" index="0" allow="emergency passenger taxi bus coach delivery truck trailer evehicle" speed="12.50" length="234.69" shape="1806.26,2150.73 1796.77,2141.41 1792.23,2136.11 1787.35,2129.95 1780.81,2121.68 1773.31,2110.42 1760.03,2091.44 1752.39,2082.73 1745.82,2076.99 1737.05,2070.91 1727.71,2063.72 1716.23,2055.51 1688.50,2034.11 1680.56,2029.21 1674.72,2026.33 1669.00,2024.38 1660.25,2022.22 1638.02,2014.22"/>
        <lane id="-108396_1" index="1" allow="emergency passenger taxi bus coach delivery truck trailer evehicle" speed="12.50" length="234.69" shape="1808.50,2148.45 1799.12,2139.23 1794.70,2134.07 1789.86,2127.96 1783.40,2119.79 1775.95,2108.62 1762.55,2089.46 1754.65,2080.46 1747.79,2074.46 1738.94,2068.33 1729.62,2061.15 1718.14,2052.94 1690.32,2031.47 1682.11,2026.40 1675.95,2023.37 1669.90,2021.31 1661.18,2019.15 1639.11,2011.20"/>
    </edge>
    <edge id="-108397" from="13447229" to="13447505" name="Hathway Drive" priority="2" type="201500" shape="1743.19,2202.10 1731.71,2186.89 1718.52,2169.65 1709.13,2156.48 1703.39,2149.38 1696.94,2143.26 1692.70,2139.18 1664.63,2118.67 1640.58,2100.24 1635.10,2096.14 1629.71,2093.04 1624.06,2090.94 1617.37,2087.81 1612.55,2084.73 1608.59,2082.66 1606.24,2077.61 1606.25,2073.61 1607.29,2067.63 1608.70,2062.66 1612.45,2055.73 1615.20,2048.78 1619.16,2040.85 1621.74,2032.89 1626.01,2017.97 1629.47,2006.03">
        <lane id="-108397_0" index="0" allow="emergency passenger taxi bus coach delivery truck trailer evehicle" speed="12.50" length="263.91" shape="1739.35,2205.00 1727.89,2189.80 1714.66,2172.51 1705.31,2159.39 1699.86,2152.64 1693.62,2146.73 1689.60,2142.87 1661.75,2122.52 1637.67,2104.05 1632.45,2100.15 1627.66,2097.40 1622.21,2095.37 1615.05,2092.03 1610.14,2088.88 1604.92,2086.16 1601.44,2078.67 1601.45,2073.19 1602.61,2066.56 1604.22,2060.84 1608.09,2053.69 1610.81,2046.82 1614.70,2039.02 1617.15,2031.49 1621.39,2016.64 1621.85,2015.08"/>
        <lane id="-108397_1" index="1" allow="emergency passenger taxi bus coach delivery truck trailer evehicle" speed="12.50" length="263.91" shape="1741.91,2203.07 1730.44,2187.86 1717.23,2170.60 1707.86,2157.45 1702.21,2150.47 1695.83,2144.42 1691.67,2140.41 1663.67,2119.95 1639.61,2101.51 1634.21,2097.48 1629.03,2094.49 1623.45,2092.41 1616.60,2089.22 1611.75,2086.11 1607.37,2083.82 1604.64,2077.97 1604.65,2073.47 1605.73,2067.28 1607.21,2062.05 1611.00,2055.05 1613.74,2048.12 1617.67,2040.24 1620.21,2032.43 1624.47,2017.53 1624.92,2015.98"/>
    </edge>
    <edge id="-108417" from="13447368" to="13447533" name="Hurley Crescent" priority="2" type="201500" shape="2104.32,2106.64 2068.52,2050.99 2028.93,1983.26">
        <lane id="-108417_0" index="0" allow="emergency passenger taxi bus coach delivery truck trailer evehicle" speed="12.50" length="144.62" shape="2094.64,2100.46 2064.42,2053.50 2024.78,1985.69"/>
        <lane id="-108417_1" index="1" allow="emergency passenger taxi bus coach delivery truck trailer evehicle" speed="12.50" length="144.62" shape="2097.33,2098.73 2067.15,2051.82 2027.54,1984.07"/>
    </edge>
    <edge id="-108503" from="13447345" to="13447638" name="Doerr Road" priority="2" type="201500" shape="1498.63,2124.66 1531.62,2018.26 1566.60,1901.89">
        <lane id="-108503_0" index="0" allow="emergency passenger taxi bus coach delivery truck trailer evehicle" speed="12.50" length="232.91" shape="1497.14,2113.26 1527.03,2016.86 1559.04,1910.36"/>
        <lane id="-108503_1" index="1" allow="emergency passenger taxi bus coach delivery truck trailer evehicle" speed="12.50" length="232.91" shape="1500.20,2114.21 1530.09,2017.80 1562.11,1911.28"/>
    </edge>
    <edge id="-108525" from="13447378" to="13447638" name="Cora Crescent" priority="2" type="201500" shape="1420.31,2100.24 1454.52,1991.87 1481.30,1904.35 1483.55,1897.39 1484.74,1890.42 1487.89,1885.47 1490.82,1882.52 1495.92,1880.62 1501.10,1880.71 1506.50,1882.81 1513.84,1884.94 1566.60,1901.89">
        <lane id="-108525_0" index="0" allow="emergency passenger taxi bus coach delivery truck trailer evehicle" speed="12.50" length="309.06" shape="1418.87,2088.86 1449.94,1990.44 1476.72,1902.91 1478.87,1896.25 1480.17,1888.65 1484.12,1882.46 1488.15,1878.40 1495.09,1875.80 1502.04,1875.93 1508.04,1878.26 1515.24,1880.35 1558.08,1894.12"/>
        <lane id="-108525_1" index="1" allow="emergency passenger taxi bus coach delivery truck trailer evehicle" speed="12.50" length="309.06" shape="1421.92,2089.82 1452.99,1991.39 1479.77,1903.87 1481.99,1897.01 1483.21,1889.83 1486.63,1884.47 1489.93,1881.15 1495.64,1879.01 1501.42,1879.12 1507.02,1881.29 1514.31,1883.41 1557.10,1897.16"/>
    </edge>
    <edge id="-108536" from="13447609" to="13447705" name="Canadine Road" priority="2" type="201500" shape="741.67,1926.23 667.47,1900.54 539.27,1859.21">
        <lane id="-108536_0" index="0" allow="emergency passenger taxi bus coach delivery truck trailer evehicle" speed="12.50" length="216.65" shape="740.34,1930.85 665.95,1905.10 550.73,1867.95"/>
        <lane id="-108536_1" index="1" allow="emergency passenger taxi bus coach delivery truck trailer evehicle" speed="12.50" length="216.65" shape="741.39,1927.83 666.97,1902.06 551.71,1864.90"/>
    </edge>
    <edge id="-108555" from="13447615" to="13447750" name="Applefield Drive" priority="2" type="201500" shape="1229.72,1917.78 1231.93,1905.82 1235.35,1896.88 1237.11,1888.92 1240.86,1878.98 1242.42,1872.01 1244.30,1865.04 1245.76,1857.07 1247.10,1852.09 1247.89,1846.11 1249.47,1838.14 1249.85,1831.14 1250.56,1823.15">
        <lane id="-108555_0" index="0" allow="emergency passenger taxi bus coach delivery truck trailer evehicle" speed="12.50" length="97.32" shape="1226.74,1907.53 1227.29,1904.52 1230.74,1895.50 1232.50,1887.54 1236.25,1877.61 1237.76,1870.86 1239.61,1863.99 1241.07,1856.01 1242.38,1851.15 1243.15,1845.32 1244.70,1837.54 1244.98,1832.39"/>
        <lane id="-108555_1" index="1" allow="emergency passenger taxi bus coach delivery truck trailer evehicle" speed="12.50" length="97.32" shape="1229.88,1908.11 1230.39,1905.39 1233.81,1896.42 1235.58,1888.46 1239.32,1878.52 1240.87,1871.63 1242.74,1864.69 1244.19,1856.72 1245.52,1851.78 1246.31,1845.85 1247.88,1837.94 1248.17,1832.68"/>
    </edge>
    <edge id="-108568" from="13447368" to="13447762" name="Flintwick Drive" priority="2" type="201500" shape="2104.32,2106.64 2116.28,2098.86 2120.58,2095.93 2124.26,2093.00 2126.86,2091.05 2129.93,2087.10 2137.50,2066.24 2155.57,2010.56 2189.34,1899.16 2202.16,1854.38 2203.42,1850.41 2204.16,1847.42 2204.98,1843.43 2204.62,1839.43 2203.23,1836.40 2202.27,1834.38 2200.31,1832.35 2197.78,1830.30 2192.30,1829.20 2185.09,1827.07 2113.58,1816.78">
        <lane id="-108568_0" index="0" allow="emergency passenger taxi bus coach delivery truck trailer evehicle" speed="12.50" length="388.48" shape="2110.45,2096.92 2113.62,2094.86 2117.73,2092.07 2121.31,2089.21 2123.46,2087.59 2125.67,2084.75 2132.96,2064.68 2150.99,2009.12 2184.74,1897.80 2197.56,1853.00 2198.79,1849.10 2199.48,1846.35 2200.14,1843.16 2199.91,1840.68 2198.88,1838.43 2198.27,1837.15 2197.05,1835.89 2195.68,1834.77 2191.15,1833.87 2184.06,1831.77 2112.90,1821.53"/>
        <lane id="-108568_1" index="1" allow="emergency passenger taxi bus coach delivery truck trailer evehicle" speed="12.50" length="388.48" shape="2112.19,2099.61 2115.39,2097.52 2119.63,2094.64 2123.28,2091.74 2125.73,2089.90 2128.51,2086.32 2135.98,2065.72 2154.04,2010.08 2187.81,1898.70 2200.62,1853.92 2201.87,1849.97 2202.60,1847.06 2203.37,1843.34 2203.05,1839.84 2201.78,1837.07 2200.94,1835.31 2199.22,1833.53 2197.08,1831.79 2191.91,1830.76 2184.74,1828.64 2113.35,1818.36"/>
    </edge>
    <edge id="-108583" from="13447505" to="13447787" name="Hathway Drive" priority="2" type="201500" shape="1629.47,2006.03 1650.07,1938.41 1691.20,1804.15">
        <lane id="-108583_0" index="0" allow="emergency passenger taxi bus coach delivery truck trailer evehicle" speed="12.50" length="211.11" shape="1627.82,1994.99 1645.48,1937.01 1686.56,1802.88"/>
        <lane id="-108583_1" index="1" allow="emergency passenger taxi bus coach delivery truck trailer evehicle" speed="12.50" length="211.11" shape="1630.88,1995.92 1648.54,1937.94 1689.62,1803.82"/>
    </edge>
    <edge id="-108604" from="13447638" to="13447820" name="Doerr Road" priority="2" type="201500">
        <lane id="-108604_0" index="0" allow="emergency passenger taxi bus coach delivery truck trailer evehicle" speed="12.50" length="130.02" shape="1565.08,1890.46 1600.08,1776.17"/>
        <lane id="-108604_1" index="1" allow="emergency passenger taxi bus coach delivery truck trailer evehicle" speed="12.50" length="130.02" shape="1568.14,1891.40 1603.14,1777.11"/>
    </edge>
    <edge id="-108685" from="13447880" to="13447939" name="Waterfield Drive" priority="2" type="201500" shape="1448.00,1730.74 1428.39,1726.38 1413.97,1722.12 1400.54,1717.87 1388.05,1713.65 1380.92,1710.52 1372.64,1705.37 1363.79,1700.21 1356.74,1696.08 1353.25,1692.01">
        <lane id="-108685_0" index="0" allow="emergency passenger taxi bus coach delivery truck trailer evehicle" speed="12.50" length="103.52" shape="1444.97,1734.98 1427.19,1731.03 1412.56,1726.71 1399.05,1722.44 1386.32,1718.13 1378.68,1714.78 1370.16,1709.48 1361.37,1704.35 1360.07,1703.59"/>
        <lane id="-108685_1" index="1" allow="emergency passenger taxi bus coach delivery truck trailer evehicle" speed="12.50" length="103.52" shape="1445.66,1731.86 1427.99,1727.93 1413.50,1723.65 1400.04,1719.39 1387.47,1715.14 1380.17,1711.94 1371.81,1706.74 1362.99,1701.59 1362.61,1701.37"/>
    </edge>
    <edge id="-108686" from="13447750" to="13447939" name="Tordale Crescent" priority="2" type="201500" shape="1250.56,1823.15 1258.74,1823.30 1305.00,1823.15 1314.83,1822.33 1320.53,1821.43 1324.05,1820.50 1326.00,1819.53 1327.19,1819.56 1329.23,1817.59 1330.95,1815.62 1333.02,1811.66 1333.57,1805.67 1334.30,1768.68 1333.59,1759.67 1334.53,1752.68 1335.14,1746.69 1335.54,1741.70 1337.43,1733.73 1338.20,1725.75 1341.52,1718.81 1344.49,1709.86 1348.64,1701.93 1353.25,1692.01">
        <lane id="-108686_0" index="0" allow="emergency passenger taxi bus coach delivery truck trailer evehicle" speed="12.50" length="210.35" shape="1260.34,1818.50 1304.79,1818.35 1314.25,1817.56 1319.54,1816.73 1322.35,1815.98 1323.70,1815.32 1326.11,1813.87 1326.96,1812.89 1328.33,1810.28 1328.77,1805.40 1329.50,1768.82 1328.76,1759.53 1329.76,1752.12 1330.36,1746.26 1330.79,1740.95 1332.69,1732.94 1333.51,1724.44 1337.06,1717.01 1340.06,1707.98 1343.43,1701.54"/>
        <lane id="-108686_1" index="1" allow="emergency passenger taxi bus coach delivery truck trailer evehicle" speed="12.50" length="210.35" shape="1260.28,1821.70 1304.93,1821.55 1314.64,1820.74 1320.20,1819.87 1323.48,1818.99 1325.64,1817.93 1326.56,1817.94 1328.07,1816.49 1329.62,1814.71 1331.46,1811.20 1331.97,1805.58 1332.70,1768.73 1331.98,1759.62 1332.94,1752.50 1333.54,1746.55 1333.96,1741.45 1335.85,1733.47 1336.64,1725.31 1340.03,1718.21 1343.02,1709.23 1346.33,1702.89"/>
    </edge>
    <edge id="-108704" from="13447851" to="13447966" name="Sancrest Drive" priority="2" type="201500">
        <lane id="-108704_0" index="0" allow="emergency passenger taxi bus coach delivery truck trailer evehicle" speed="12.50" length="83.05" shape="1522.82,1751.80 1543.60,1682.18"/>
        <lane id="-108704_1" index="1" allow="emergency passenger taxi bus coach delivery truck trailer evehicle" speed="12.50" length="83.05" shape="1525.88,1752.72 1546.67,1683.09"/>
    </edge>
    <edge id="-108713" from="13447741" to="13447982" name="Neapolitan Drive" priority="2" type="201500" shape="1783.39,1831.81 1796.97,1793.06 1800.03,1783.11 1801.03,1776.13 1802.22,1769.15 1802.70,1763.16 1803.26,1756.17 1803.27,1749.17 1801.81,1743.14 1785.76,1659.84">
        <lane id="-108713_0" index="0" allow="emergency passenger taxi bus coach delivery truck trailer evehicle" speed="12.50" length="176.67" shape="1778.86,1830.23 1792.41,1791.56 1795.33,1782.06 1796.29,1775.38 1797.45,1768.55 1797.92,1762.77 1798.46,1755.97 1798.47,1749.74 1797.12,1744.16 1783.03,1671.01"/>
        <lane id="-108713_1" index="1" allow="emergency passenger taxi bus coach delivery truck trailer evehicle" speed="12.50" length="176.67" shape="1781.88,1831.29 1795.45,1792.56 1798.46,1782.76 1799.45,1775.88 1800.63,1768.95 1801.10,1763.03 1801.66,1756.10 1801.67,1749.36 1800.25,1743.48 1786.17,1670.41"/>
    </edge>
    <edge id="-108714" from="13447787" to="13447982" name="Jackmuir Crescent" priority="2" type="201500" shape="1691.20,1804.15 1702.47,1768.34 1715.42,1726.57 1718.22,1716.62 1720.28,1706.66 1722.84,1689.70 1724.42,1681.73 1725.95,1676.76 1727.72,1671.79 1730.23,1667.83 1732.18,1663.87 1734.40,1661.91 1737.30,1660.96 1741.92,1661.04 1749.17,1661.17 1767.85,1661.51 1776.66,1661.67 1785.76,1659.84">
        <lane id="-108714_0" index="0" allow="emergency passenger taxi bus coach delivery truck trailer evehicle" speed="12.50" length="201.27" shape="1686.66,1802.56 1697.89,1766.91 1710.81,1725.21 1713.56,1715.49 1715.55,1705.82 1718.11,1688.88 1719.76,1680.56 1721.39,1675.24 1723.39,1669.67 1726.04,1665.48 1728.29,1660.90 1731.97,1657.65 1736.57,1656.15 1742.01,1656.24 1749.26,1656.38 1767.94,1656.71 1774.53,1656.83"/>
        <lane id="-108714_1" index="1" allow="emergency passenger taxi bus coach delivery truck trailer evehicle" speed="12.50" length="201.27" shape="1689.71,1803.52 1700.94,1767.87 1713.88,1726.12 1716.67,1716.24 1718.70,1706.38 1721.26,1689.43 1722.86,1681.34 1724.43,1676.25 1726.28,1671.08 1728.84,1667.05 1730.88,1662.88 1733.59,1660.49 1737.06,1659.36 1741.95,1659.44 1749.20,1659.58 1767.88,1659.91 1775.17,1660.04"/>
    </edge>
    <edge id="-108726" from="13447750" to="13448001" name="Applefield Drive" priority="2" type="201500" shape="1250.56,1823.15 1250.14,1815.15 1249.56,1809.13 1249.73,1803.14 1248.08,1794.11 1246.48,1779.07 1245.59,1773.06 1243.30,1765.01 1242.45,1760.00 1241.23,1754.97 1239.20,1749.94 1237.14,1742.90 1234.91,1734.86 1230.91,1727.78 1226.61,1716.70 1223.15,1707.64 1220.11,1702.58 1216.47,1696.51 1213.42,1692.46 1211.51,1687.42 1209.10,1682.38 1206.60,1679.33 1204.50,1674.29 1202.71,1666.26 1200.02,1659.21 1198.87,1650.18">
        <lane id="-108726_0" index="0" allow="emergency passenger taxi bus coach delivery truck trailer evehicle" speed="12.50" length="183.14" shape="1245.18,1813.73 1244.75,1809.30 1244.92,1803.50 1243.33,1794.79 1241.72,1779.68 1240.89,1774.07 1238.61,1766.07 1237.75,1760.97 1236.65,1756.45 1234.66,1751.51 1232.52,1744.21 1230.44,1736.71 1226.56,1729.84 1222.13,1718.43 1218.81,1709.74 1216.00,1705.05 1212.49,1699.20 1209.18,1694.80 1207.10,1689.31 1205.02,1684.97 1202.44,1681.83 1199.91,1675.75 1198.10,1667.64 1195.67,1661.27"/>
        <lane id="-108726_1" index="1" allow="emergency passenger taxi bus coach delivery truck trailer evehicle" speed="12.50" length="183.14" shape="1248.38,1813.56 1247.96,1809.19 1248.13,1803.26 1246.50,1794.33 1244.89,1779.28 1244.02,1773.39 1241.74,1765.37 1240.88,1760.32 1239.70,1755.47 1237.68,1750.46 1235.60,1743.34 1233.42,1735.47 1229.46,1728.47 1225.12,1717.28 1221.70,1708.34 1218.74,1703.40 1215.14,1697.41 1212.01,1693.24 1210.04,1688.05 1207.74,1683.24 1205.21,1680.16 1202.97,1674.78 1201.17,1666.72 1198.94,1660.85"/>
    </edge>
    <edge id="-108728" from="13447939" to="13448004" name="Waterfield Drive" priority="2" type="201500" shape="1353.25,1692.01 1350.71,1690.97 1344.68,1685.86 1338.50,1681.74 1332.53,1676.63 1323.64,1670.47 1317.97,1666.37 1311.90,1663.25 1302.60,1659.08 1294.97,1655.94 1286.48,1651.79 1279.95,1649.67">