<?xml version="1.0" encoding="UTF-8"?>

<!-- generated on 2024-10-16 17:02:27.579150 by routeSampler.py UNKNOWN
<configuration>
    <route-files value="data/processed/bendale-glen_andrew/initial_route_file_cars.rou.xml"/>
    <turn-files value="data/processed/bendale-glen_andrew/turning_movements_cars.xml"/>
    <output-file value="data/sumo_networks/bendale-glen_andrew/bendale-glen_andrew_cars_routes.rou.xml"/>
    <prefix value="cars"/>
    <begin value="28800"/>
    <end value="34200"/>
    <total-count value="15941"/>
</configuration>
-->

<routes xmlns:xsi="http://www.w3.org/2001/XMLSchema-instance" xsi:noNamespaceSchemaLocation="http://sumo.dlr.de/xsd/routes_file.xsd">
<!-- begin="28800.0" end="29700.0" -->
    <vehicle id="cars28800_0" depart="28800.03">
        <route edges="30001420 30001421 6786837 3648605 3648609 107930 107795 107766 107598 3633149 107241 107227 107209"/>
    </vehicle>
    <vehicle id="cars28800_1" depart="28800.20">
        <route edges="5087274 109688 30122712 30122713 30107359 30107360 109340 109263 109125"/>
    </vehicle>
    <vehicle id="cars28800_2" depart="28800.54">
        <route edges="-108851 -109021 -109009 -109052 -109154 30071791 30071792"/>
    </vehicle>
    <vehicle id="cars28800_3" depart="28800.85">
        <route edges="-30030000 -30029999 -108555 -108686 -108877 30029962"/>
    </vehicle>
    <vehicle id="cars28800_4" depart="28801.00">
        <route edges="107930 107795 107766"/>
    </vehicle>
    <vehicle id="cars28800_5" depart="28803.53">
        <route edges="-108704 -108840 -108839 -108973 30001448 30088936 30083207 30083208 30083231"/>
    </vehicle>
    <vehicle id="cars28800_6" depart="28803.77">
        <route edges="20035249 109686 30001364 30001365 30001367 30039277 30039278"/>
    </vehicle>
    <vehicle id="cars28800_7" depart="28805.44">
        <route edges="30075799 9638455 108322 3648605 3648609 107930"/>
    </vehicle>
    <vehicle id="cars28800_8" depart="28805.57">
        <route edges="-109009 -109052 -109110 -30083231 -30083208 -30083207 -30088936 -30001448"/>
    </vehicle>
    <vehicle id="cars28800_9" depart="28805.82">
        <route edges="-108714 -108828 -108973 30001448 30088936 30083207 30083208 30083231 30010612 30010613 30071791 30071792 30020570 30020544 30020545 109044"/>
    </vehicle>
    <vehicle id="cars28800_10" depart="28806.28">
        <route edges="30010612 30010613 109154 109052 109009 109021 108850"/>
    </vehicle>
    <vehicle id="cars28800_11" depart="28806.38">
        <route edges="-108877 30029962 30029963 108726 108555 30029999 30030000 108322 3648605 3648609 107930 107795 107766 107598 3633149 107241 107227 107210 14239040 14239073"/>
    </vehicle>
    <vehicle id="cars28800_12" depart="28806.62">
        <route edges="20035249 109686 30001364 30001365 30001367 30039277 30039278"/>
    </vehicle>
    <vehicle id="cars28800_13" depart="28806.72">
        <route edges="20035249 109686 30001364 30001365 30001367 30039277 30039278"/>
    </vehicle>
    <vehicle id="cars28800_14" depart="28807.76">
        <route edges="109096 -109211 -109221 -109240 109239 109221 109211 -109096 -109124 -109263 109262"/>
    </vehicle>
    <vehicle id="cars28800_15" depart="28808.18">
        <route edges="-5101676 108728 108686"/>
    </vehicle>
    <vehicle id="cars28800_16" depart="28808.84">
        <route edges="107930 107795 107766"/>
    </vehicle>
    <vehicle id="cars28800_17" depart="28808.92">
        <route edges="108388 108327 108247 30001420"/>
    </vehicle>
    <vehicle id="cars28800_18" depart="28809.46">
        <route edges="30010613 109154 -109110 -30083231 -30083208 -30083207 -30088936 -30001448"/>
    </vehicle>
    <vehicle id="cars28800_19" depart="28809.64">
        <route edges="107930 107795 107766"/>
    </vehicle>
    <vehicle id="cars28800_20" depart="28810.80">
        <route edges="-14673433 7204482 7204470 107430 107388 107369 107226"/>
    </vehicle>
    <vehicle id="cars28800_21" depart="28811.61">
        <route edges="30075799 9638455 -30030000 -30029999"/>
    </vehicle>
    <vehicle id="cars28800_22" depart="28811.91">
        <route edges="-109729 109728"/>
    </vehicle>
    <vehicle id="cars28800_23" depart="28811.95">
        <route edges="109142 30001444 30001445 -109166 -109289 -109525 109524"/>
    </vehicle>
    <vehicle id="cars28800_24" depart="28812.31">
        <route edges="109330 -109221 -109239 109240"/>
    </vehicle>
    <vehicle id="cars28800_25" depart="28812.48">
        <route edges="7204446 108103 6541762 14673433 3644393 20146476 20146477 107597 107543"/>
    </vehicle>
    <vehicle id="cars28800_26" depart="28812.61">
        <route edges="-108321 -30030000 -30029999 -108555 -108726 -30001427"/>
    </vehicle>
    <vehicle id="cars28800_27" depart="28812.78">
        <route edges="30030000 108322 3648605 3648609 107930 107795 107766 107598 3633149 107241 107227 107210 14239040"/>
    </vehicle>
    <vehicle id="cars28800_28" depart="28814.43">
        <route edges="107930 107795 107766 107598 3633149 107241 107226 107163 107037 107019"/>
    </vehicle>
    <vehicle id="cars28800_29" depart="28814.58">
        <route edges="6541762 14673433 3644393 20146476 20146477"/>
    </vehicle>
    <vehicle id="cars28800_30" depart="28814.62">
        <route edges="107930 107795 107766"/>
    </vehicle>
    <vehicle id="cars28800_31" depart="28815.00">
        <route edges="108388 108327 108247 30001420"/>
    </vehicle>
    <vehicle id="cars28800_32" depart="28815.22">
        <route edges="30071791 30071792 30020570 30020544 30020545 109044 108969 -109052 -109110 -30083231 -30083208 -30083207"/>
    </vehicle>
    <vehicle id="cars28800_33" depart="28815.27">
        <route edges="30122712 30122713 9910076 109360 108915 108596 108537 7204446 108103 6541762 14673433 3644393"/>
    </vehicle>
    <vehicle id="cars28800_34" depart="28815.75">
        <route edges="-30001448 108973 108839"/>
    </vehicle>
    <vehicle id="cars28800_35" depart="28816.23">
        <route edges="13232758 5087274 109688 30122712 30122713 9910076"/>
    </vehicle>
    <vehicle id="cars28800_36" depart="28817.69">
        <route edges="30075799 9638455 108322 3648605 3648609 107930"/>
    </vehicle>
    <vehicle id="cars28800_37" depart="28817.98">
        <route edges="-109122 -109166 -109289 -109525 -109541 -109729 109728 109716 109685 109616 11485062 9638451 109516 30001462 30001463 109285 109176"/>
    </vehicle>
    <vehicle id="cars28800_38" depart="28818.12">
        <route edges="-108983 30083207 30083208 30083231 109110 109052 -108969 108942 108797 108611 108260 20050651"/>
    </vehicle>
    <vehicle id="cars28800_39" depart="28818.84">
        <route edges="7155256 4605051 30140177 30140178 109739 109729 109542 109522 109448"/>
    </vehicle>
    <vehicle id="cars28800_40" depart="28818.91">
        <route edges="108604 108525 -108321 108322 3648605 3648609 107930 107795 107766 107598 3633149 107241 107227 107210 14239040 14239073"/>
    </vehicle>
    <vehicle id="cars28800_41" depart="28819.03">
        <route edges="108388 108327 108247 30001420"/>
    </vehicle>
    <vehicle id="cars28800_42" depart="28819.66">
        <route edges="13232758 5087274 109688 30122712 30122713 30107359 30107360 109340 109262 109239 -109240 -109262 -109340 -30107360 -30107359"/>
    </vehicle>
    <vehicle id="cars28800_43" depart="28819.78">
        <route edges="9011650 109516 30001462 30001463 109285 109176 -30020570 -30071792 -30071791 -30010613 -30010612 -30083231 -30083208 -30083207 -30088936 -30001448 108973 108839 108840 -108867"/>
    </vehicle>
    <vehicle id="cars28800_44" depart="28819.86">
        <route edges="107930 107795 107766"/>
    </vehicle>
    <vehicle id="cars28800_45" depart="28820.31">
        <route edges="-109166 -109289 -109525 109524 -109615 109525 109289 109166 -30001445 -30001444"/>
    </vehicle>
    <vehicle id="cars28800_46" depart="28821.55">
        <route edges="109124 109096 -109211 -109221 -109240 109239 109221 109211 -109096"/>
    </vehicle>
    <vehicle id="cars28800_47" depart="28821.60">
        <route edges="109044 108969 -109052 -109154 30071791 30071792 30020570"/>
    </vehicle>
    <vehicle id="cars28800_48" depart="28822.18">
        <route edges="-30020570 -30071792 -30071791 109154 109052 -108969 108942 108797 108611 108260 20050651 20050652 107897 6341039 107613 107563 107461 107307 107238 107193 107148"/>
    </vehicle>
    <vehicle id="cars28800_49" depart="28822.68">
        <route edges="3633149 107241 107227 107210"/>
    </vehicle>
    <vehicle id="cars28800_50" depart="28822.81">
        <route edges="109263 109124 109096 -109211 -109221 -109239 109240 109221 109211 -109096 -109124 -109263 109262"/>
    </vehicle>
    <vehicle id="cars28800_51" depart="28823.12">
        <route edges="-108983 30083207 30083208 30083231 109110 109052 -108969 108942 108797 108611 108260 -108287 -108417"/>
    </vehicle>
    <vehicle id="cars28800_52" depart="28823.95">
        <route edges="109009 109021"/>
    </vehicle>
    <vehicle id="cars28800_53" depart="28824.40">
        <route edges="-109024 -109096 -109124 -109263 -109340 -30107360 -30107359 9910076 109360 108915 108596 108537 7204446 108103 6541762 14673433 3644393 20146476 20146477 107597"/>
    </vehicle>
    <vehicle id="cars28800_54" depart="28825.07">
        <route edges="-108877 30029962 30029963 108735 108728 108685"/>
    </vehicle>
    <vehicle id="cars28800_55" depart="28825.31">
        <route edges="30083208 30083231 109110 109052 -108969 108942 108797 108611 108260 20050651 20050652 107897 6341039 107613 107563 107461 107307 107238 107193 107148 107048 107037"/>
    </vehicle>
    <vehicle id="cars28800_56" depart="28827.32">
        <route edges="30075799 9638455 -30030000 -30029999"/>
    </vehicle>
    <vehicle id="cars28800_57" depart="28829.22">
        <route edges="107930 107795 107766"/>
    </vehicle>
    <vehicle id="cars28800_58" depart="28830.08">
        <route edges="108867 -108840 -108839 -108973 30001448 30088936 30083207 30083208 30083231 109110 109052 -108969 108942 -108850"/>
    </vehicle>
    <vehicle id="cars28800_59" depart="28830.94">
        <route edges="13232758 7155256 4605051 30140177 30140178 -30020539"/>
    </vehicle>
    <vehicle id="cars28800_60" depart="28830.99">
        <route edges="9011650 109516 30001462 30001463 109285 109176 30020544 30020545 109044 108969 -109052 -109154 30071791"/>
    </vehicle>
    <vehicle id="cars28800_61" depart="28831.21">
        <route edges="109449 -109448 -109522 -109542 109541 109524 -109615 -109541 109542 109522"/>
    </vehicle>
    <vehicle id="cars28800_62" depart="28831.64">
        <route edges="13232758 7155256 4605051 30140177 30140178 109739 109729 109542 109530"/>
    </vehicle>
    <vehicle id="cars28800_63" depart="28832.03">
        <route edges="-108867 -108839 -108973 30001448 30088936 30083207"/>
    </vehicle>
    <vehicle id="cars28800_64" depart="28832.81">
        <route edges="-109124 -109263 -109340 -30107360 -30107359 9910076 109360 108915 108596 108537 7204446 108103 6541762 14673433 3644393 20146476 20146477 107598 3633149 107241"/>
    </vehicle>
    <vehicle id="cars28800_65" depart="28833.04">
        <route edges="30107359 30107360 109340 109262 109239 -109240 -109262 -109340 -30107360 -30107359 9910076 109360 108914"/>
    </vehicle>
    <vehicle id="cars28800_66" depart="28834.56">
        <route edges="13232758 7155256 4605051 30140177 30140178 109739 109729 109541 109525 109289"/>
    </vehicle>
    <vehicle id="cars28800_67" depart="28835.06">
        <route edges="109010 -109009 -108969 108942 108797 108611 108260 20050651 20050652 107897 6341039"/>
    </vehicle>
    <vehicle id="cars28800_68" depart="28835.11">
        <route edges="-109289 -109525 -109541 -109729 109728 109716 109685 109616 11485062 -109628"/>
    </vehicle>
    <vehicle id="cars28800_69" depart="28835.34">
        <route edges="-109009 -109052 -109110 -30083231 -30083208 -30083207 108983"/>
    </vehicle>
    <vehicle id="cars28800_70" depart="28835.43">
        <route edges="9011650 109516 30001462 30001463 109285 109176 -30020570 -30071792 -30071791 109154 -109110 30010612"/>
    </vehicle>
    <vehicle id="cars28800_71" depart="28835.82">
        <route edges="30075799 9638455 108322 3648605 3648609 107930"/>
    </vehicle>
    <vehicle id="cars28800_72" depart="28835.83">
        <route edges="109686 30001364 30001365 30001367 30039277 30039278 30039286 30039287 30001418 109138 30001441 30029992"/>
    </vehicle>
    <vehicle id="cars28800_73" depart="28835.93">
        <route edges="30029999 30030000 108322 3648605 3648609 107930 107795 107766 107598 3633149 107241 107226 107163 107037 107019"/>
    </vehicle>
    <vehicle id="cars28800_74" depart="28835.95">
        <route edges="-108735 108726 108555 30029999 30030000 108321"/>
    </vehicle>
    <vehicle id="cars28800_75" depart="28836.12">
        <route edges="-30071791 -30010613 -30010612 -30083231 -30083208 -30083207 -30088936 -30001448 108973 108839 108840 -108867 -108839 -108973 30001448 30088936 30083207"/>
    </vehicle>
    <vehicle id="cars28800_76" depart="28836.23">
        <route edges="30001420 30001421 6786837 108126 4666869"/>
    </vehicle>
    <vehicle id="cars28800_77" depart="28836.26">
        <route edges="-30010613 -30010612 -30083231 -30083208 -30083207 -30088936 -30001448 108973 108839 108840 -108867 -108839"/>
    </vehicle>
    <vehicle id="cars28800_78" depart="28836.30">
        <route edges="30029999 30030000 108322 3648605 3648609 107930 107795 107766 107598 3633149 107241 107226 107163 107037 107019"/>
    </vehicle>
    <vehicle id="cars28800_79" depart="28837.35">
        <route edges="-108555 -108726 -30029963"/>
    </vehicle>
    <vehicle id="cars28800_80" depart="28837.42">
        <route edges="107427 107462 107461 107307 107238 107193"/>
    </vehicle>
    <vehicle id="cars28800_81" depart="28838.79">
        <route edges="-30010612 -30083231 -30083208 -30083207 -30088936 -30001448 108973 108839 108867"/>
    </vehicle>
    <vehicle id="cars28800_82" depart="28839.66">
        <route edges="13232758 5087274 109688 30122712 30122713 30107359"/>
    </vehicle>
    <vehicle id="cars28800_83" depart="28840.13">
        <route edges="-108983 30083207 30083208 30083231 109110 -109154 -30010613 -30010612 -30083231 -30083208"/>
    </vehicle>
    <vehicle id="cars28800_84" depart="28840.37">
        <route edges="109044 108942 108797 108611 108260 20050651 20050652 107897 6341039 107613 107563 107463"/>
    </vehicle>
    <vehicle id="cars28800_85" depart="28840.50">
        <route edges="107930 107795 107766"/>
    </vehicle>
    <vehicle id="cars28800_86" depart="28840.64">
        <route edges="109686 30001364 30001365 30001367 30039277 30039278 30039286 30039287 30001418 109138 30001441"/>
    </vehicle>
    <vehicle id="cars28800_87" depart="28841.03">
        <route edges="30075799 9638455 108322 3648605 3648609 107930"/>
    </vehicle>
    <vehicle id="cars28800_88" depart="28842.48">
        <route edges="108388 108327 108247 30001420"/>
    </vehicle>
    <vehicle id="cars28800_89" depart="28843.53">
        <route edges="-109125 -109263 109262 109240"/>
    </vehicle>
    <vehicle id="cars28800_90" depart="28843.83">
        <route edges="30001364 30001365 30001367 30039277 30039278 30039286 30039287"/>
    </vehicle>
    <vehicle id="cars28800_91" depart="28843.89">
        <route edges="30001365 30001367"/>
    </vehicle>
    <vehicle id="cars28800_92" depart="28844.10">
        <route edges="-108259 108260 20050651 20050652 107897 6341039 107613 107563 107461 107307 107238 107193 107148 107048 107037 107018"/>
    </vehicle>
    <vehicle id="cars28800_93" depart="28844.30">
        <route edges="13232758 5087274 109688 30122712 30122713 30107359 30107360 109340 109263 109124 109096"/>
    </vehicle>
    <vehicle id="cars28800_94" depart="28844.37">
        <route edges="-108264 -108294 -108321 -30030000 -30029999"/>
    </vehicle>
    <vehicle id="cars28800_95" depart="28844.38">
        <route edges="30075799 9638455 -30030000 -30029999"/>
    </vehicle>
    <vehicle id="cars28800_96" depart="28844.65">
        <route edges="107930 107795 107766"/>
    </vehicle>
    <vehicle id="cars28800_97" depart="28844.87">
        <route edges="30075799 9638455 -30030000 -30029999"/>
    </vehicle>
    <vehicle id="cars28800_98" depart="28845.16">
        <route edges="-108828 -108973 30001448 30088936 30083207 30083208 30083231 109110 109052 -108969"/>
    </vehicle>
    <vehicle id="cars28800_99" depart="28845.29">
        <route edges="107930 107795 107766"/>
    </vehicle>
    <vehicle id="cars28800_100" depart="28845.38">
        <route edges="-109010 -109052 -109154 -30010613 -30010612 109110 109052"/>
    </vehicle>
    <vehicle id="cars28800_101" depart="28845.52">
        <route edges="107930 107795 107766"/>
    </vehicle>
    <vehicle id="cars28800_102" depart="28846.04">
        <route edges="-30020570 -30071792 -30071791 109154 -109110"/>
    </vehicle>
    <vehicle id="cars28800_103" depart="28846.05">
        <route edges="-108983 -30088936 -30001448 -2146326"/>
    </vehicle>
    <vehicle id="cars28800_104" depart="28846.10">
        <route edges="6786837 108126 4666869 108035 108027 107979 107941"/>
    </vehicle>
    <vehicle id="cars28800_105" depart="28846.14">
        <route edges="-109406 -109449 -109522 -109542"/>
    </vehicle>
    <vehicle id="cars28800_106" depart="28846.16">
        <route edges="109221 109211 -109096 -109124 -109263 109262 109239 -109240 -109262"/>
    </vehicle>
    <vehicle id="cars28800_107" depart="28846.49">
        <route edges="-108828 -108973 30001448 30088936 30083207 30083208 30083231 109110 109052 -108969 108942 108797 108611 108260"/>
    </vehicle>
    <vehicle id="cars28800_108" depart="28846.82">
        <route edges="108388 108327 108247 30001420 30001421 6786837 108126 4666869 108035 108027"/>
    </vehicle>
    <vehicle id="cars28800_109" depart="28847.05">
        <route edges="108103 6541762 14673433 3644393 20146476 20146477"/>
    </vehicle>
    <vehicle id="cars28800_110" depart="28847.47">
        <route edges="-108813 -108983 -30088936 -30001448 108973 108839 108840 -108867 -108839 -108973"/>
    </vehicle>
    <vehicle id="cars28800_111" depart="28847.54">
        <route edges="-109524 -109541 -109729 109728 109716 109685 109616 11485062 9638451 3497265"/>
    </vehicle>
    <vehicle id="cars28800_112" depart="28847.54">
        <route edges="30001426 30001427 108726 108555 5101721"/>
    </vehicle>
    <vehicle id="cars28800_113" depart="28848.27">
        <route edges="6541762 14673433 3644393 20146476 20146477"/>
    </vehicle>
    <vehicle id="cars28800_114" depart="28848.45">
        <route edges="109154 -109110 -30083231 -30083208 -30083207 -30088936 -30001448 108973 108828 108714"/>
    </vehicle>
    <vehicle id="cars28800_115" depart="28849.06">
        <route edges="107930 107795 107766"/>
    </vehicle>
    <vehicle id="cars28800_116" depart="28849.11">
        <route edges="109522 109449 -109448 -109522 -109542 -109729 109728 109716 109685 109616 11485062 9638451 3497265"/>
    </vehicle>
    <vehicle id="cars28800_117" depart="28849.15">
        <route edges="9011650 109516 30001462 30001463 109285 109176 30020544 30020545 109044 108969 109010 -109009"/>
    </vehicle>
    <vehicle id="cars28800_118" depart="28849.26">
        <route edges="108103 6541762 14673433 3644393 20146476 20146477"/>
    </vehicle>
    <vehicle id="cars28800_119" depart="28849.47">
        <route edges="-108134 -108205 108204 108133 108031 107941 6793439"/>
    </vehicle>
    <vehicle id="cars28800_120" depart="28849.59">
        <route edges="-108877 30029962 30029963 108726 108555 30029999 30030000 108322 3648605 3648609 107930 107795 107766 107598 3633149 107241 107227"/>
    </vehicle>
    <vehicle id="cars28800_121" depart="28850.17">
        <route edges="5087274 109688 30122712 30122713 9910076 109360 108915 108596 108537 108388 108327 108247 30001420 30001421 6786837 3648605"/>
    </vehicle>
    <vehicle id="cars28800_122" depart="28850.33">
        <route edges="-109052 -109154 30071791 30071792 30020570 30020544 30020545 109044 108942 -108850"/>
    </vehicle>
    <vehicle id="cars28800_123" depart="28850.59">
        <route edges="13232758 7155256 4605051 30140177 30140178 109739 109729 109542 109522 109449 109406"/>
    </vehicle>
    <vehicle id="cars28800_124" depart="28850.60">
        <route edges="3648609 107930 107795"/>
    </vehicle>
    <vehicle id="cars28800_125" depart="28850.96">
        <route edges="30083231 109110 109052 -108969 108942 108797 108611 108260 20050651 20050652 107897 6341039 107613"/>
    </vehicle>
    <vehicle id="cars28800_126" depart="28851.01">
        <route edges="-108204 108205 108134 108133 108031"/>
    </vehicle>
    <vehicle id="cars28800_127" depart="28851.19">
        <route edges="30001463 109285 109176 30020544 30020545 109044 108942 108797 108611 108260 -108287 -108417"/>
    </vehicle>
    <vehicle id="cars28800_128" depart="28851.30">
        <route edges="30001462 30001463 109285 109176 -30020570 -30071792 -30071791 -30010613 -30010612 -30083231 -30083208 -30083207 -30088936 -30001448 108973 108828 108714 108583 108396"/>
    </vehicle>
    <vehicle id="cars28800_129" depart="28851.32">
        <route edges="-30010612 109110 109052 -108969 108942 108797"/>
    </vehicle>
    <vehicle id="cars28800_130" depart="28851.65">
        <route edges="3648605"/>
    </vehicle>
    <vehicle id="cars28800_131" depart="28852.61">
        <route edges="107427 107462 107461 107307 107238 107193"/>
    </vehicle>
    <vehicle id="cars28800_132" depart="28852.71">
        <route edges="-108813 -108983 30083207 30083208 30083231 109110 109052 -108969 108942 108797 108611 108260 20050651 20050652 107897 6341039 107613 107563 107461 107307 107238 107193"/>
    </vehicle>
    <vehicle id="cars28800_133" depart="28853.63">
        <route edges="3648605 3648609 107930 107795 107766 107597"/>
    </vehicle>
    <vehicle id="cars28800_134" depart="28853.66">
        <route edges="30075799 9638455 -30030000 -30029999"/>
    </vehicle>
    <vehicle id="cars28800_135" depart="28853.95">
        <route edges="110000 5087274 109688 30122712 30122713 30107359 30107360 109340 109262"/>
    </vehicle>
    <vehicle id="cars28800_136" depart="28854.20">
        <route edges="30075799 9638455 -30030000 -30029999"/>
    </vehicle>
    <vehicle id="cars28800_137" depart="28854.81">
        <route edges="109449 -109448 -109522 -109542 109541 109525 109289 109166 109122"/>
    </vehicle>
    <vehicle id="cars28800_138" depart="28855.30">
        <route edges="3648609 107930 107795"/>
    </vehicle>
    <vehicle id="cars28800_139" depart="28855.75">
        <route edges="110000 5087274 109688 30122712 30122713 30107359 30107360 109340 109262 109239 -109240 -109262 -109340 -30107360 -30107359"/>
    </vehicle>
    <vehicle id="cars28800_140" depart="28855.83">
        <route edges="20035249 109686 30001364 30001365 30001367 30039277 30039278"/>
    </vehicle>
    <vehicle id="cars28800_141" depart="28855.84">
        <route edges="107930 107795 107766"/>
    </vehicle>
    <vehicle id="cars28800_142" depart="28856.19">
        <route edges="108009 107831 20146476 20146477"/>
    </vehicle>
    <vehicle id="cars28800_143" depart="28856.62">
        <route edges="110000 5087274 109688 30122712 30122716 30122723"/>
    </vehicle>
    <vehicle id="cars28800_144" depart="28857.42">
        <route edges="108134 -108204 -108282"/>
    </vehicle>
    <vehicle id="cars28800_145" depart="28857.69">
        <route edges="109052 109009 109021"/>
    </vehicle>
    <vehicle id="cars28800_146" depart="28858.75">
        <route edges="13232758 7155256 4605051 30140177 30140178 109739 109729 109541 109525 109289 109166 -30001445 -30001444 -109274"/>
    </vehicle>
    <vehicle id="cars28800_147" depart="28859.45">
        <route edges="108388 108327 108247 30001420 30001421 6786837 108126 4666869 108035 108027"/>
    </vehicle>
    <vehicle id="cars28800_148" depart="28860.56">
        <route edges="107430 107388 107369 107226"/>
    </vehicle>
    <vehicle id="cars28800_149" depart="28860.84">
        <route edges="-30071791 -30010613 -30010612 109110 -109154 30071791 30071792 30020570 30020544"/>
    </vehicle>
    <vehicle id="cars28800_150" depart="28861.23">
        <route edges="3648609 107930 107795"/>
    </vehicle>
    <vehicle id="cars28800_151" depart="28861.37">
        <route edges="-109009 -109052 -109110 -30083231 -30083208 -30083207 -30088936"/>
    </vehicle>
    <vehicle id="cars28800_152" depart="28861.60">
        <route edges="108327 108247 30001420 30001421 6786837 3648605 3648609 107930 107795 107766"/>
    </vehicle>
    <vehicle id="cars28800_153" depart="28861.88">
        <route edges="108388 108327 108247 30001420 30001421 6786837"/>
    </vehicle>
    <vehicle id="cars28800_154" depart="28862.13">
        <route edges="-3644393 -14673433 7204482"/>
    </vehicle>
    <vehicle id="cars28800_155" depart="28862.45">
        <route edges="110000 5087274 109688 30122712 30122713 30107359 30107360 109340 109263 109124 109096 109024"/>
    </vehicle>
    <vehicle id="cars28800_156" depart="28863.06">
        <route edges="108126 4666869 108035 108027 107979 107941 6793439"/>
    </vehicle>
    <vehicle id="cars28800_157" depart="28863.48">
        <route edges="13232758 5087274 109688 30122712 30122713 30107359"/>
    </vehicle>
    <vehicle id="cars28800_158" depart="28863.63">
        <route edges="13232758 7155256 4605051 30140177 30140178 109739 109728 109716 109685 109616 11485062 9638451 109516 30001462 30001463 109285 109176 -30020570 -30071792 -30071791 -30010613 -30010612 -30083231 -30083208 -30083207 -30088936"/>
    </vehicle>
    <vehicle id="cars28800_159" depart="28864.04">
        <route edges="30075799 9638455 -30030000 -30029999"/>
    </vehicle>
    <vehicle id="cars28800_160" depart="28864.99">
        <route edges="13232758 5087274 109688 30122712 30122713 30107359 30107360 109340 109263 109124 109096"/>
    </vehicle>
    <vehicle id="cars28800_161" depart="28865.27">
        <route edges="109010 -109009 -109052 -109110 -30083231 -30083208 -30083207 -30088936 -30001448 -2146326 30075799 9638455 108322 108126"/>
    </vehicle>
    <vehicle id="cars28800_162" depart="28865.40">
        <route edges="107238 107193 107148 107048 107037 107019 107007"/>
    </vehicle>
    <vehicle id="cars28800_163" depart="28865.46">
        <route edges="13232758 7155256 4605051 30140177 30140178 109739 109729 109541 109524"/>
    </vehicle>
    <vehicle id="cars28800_164" depart="28865.61">
        <route edges="110000 5087274 109688 30122712 30122713 30107359 30107360 109340 109262"/>
    </vehicle>
    <vehicle id="cars28800_165" depart="28866.03">
        <route edges="109262 109240 -109239"/>
    </vehicle>
    <vehicle id="cars28800_166" depart="28867.41">
        <route edges="107930 107795 107766"/>
    </vehicle>
    <vehicle id="cars28800_167" depart="28867.75">
        <route edges="20035249 109686 30001364 30001365 30001367 30039277 30039278"/>
    </vehicle>
    <vehicle id="cars28800_168" depart="28869.08">
        <route edges="30029999 30030000 108322 3648605 3648609 107930 107795 107766 107598 3633149 107241 107226 107163 107037 107019"/>
    </vehicle>
    <vehicle id="cars28800_169" depart="28869.27">
        <route edges="13232758 7155256 4605051 30140177 30140178 109739 109729 109542 109522 109449 109406"/>
    </vehicle>
    <vehicle id="cars28800_170" depart="28869.47">
        <route edges="-108969 108942 -108850 -109021 -109009 -109052 -109110 30010612 30010613"/>
    </vehicle>
    <vehicle id="cars28800_171" depart="28869.74">
        <route edges="13232758 7155256 4605051 30140177 30140178 109739 109729 109541 109525 109289"/>
    </vehicle>
    <vehicle id="cars28800_172" depart="28870.07">
        <route edges="9011650 109516 30001462 30001463 109285 109176 -30020570 -30071792 -30071791 109154 -109110 30010612"/>
    </vehicle>
    <vehicle id="cars28800_173" depart="28870.76">
        <route edges="-5101627 -109289 -109525 109524 -109615 109525"/>
    </vehicle>
    <vehicle id="cars28800_174" depart="28871.35">
        <route edges="-30030000 -30029999 -108555 -108686 -108728"/>
    </vehicle>
    <vehicle id="cars28800_175" depart="28871.74">
        <route edges="-108264 -108294 -108321 108322 3648605 3648609 107930 107795 107766 107598 3633149 107241 107227 107210"/>
    </vehicle>
    <vehicle id="cars28800_176" depart="28872.10">
        <route edges="30075799 9638455 108322 3648605 3648609 107930"/>
    </vehicle>
    <vehicle id="cars28800_177" depart="28872.17">
        <route edges="-30010613 -30010612 -30083231 -30083208 -30083207 -30088936 -30001448 108973 108839 108840 -108867 -108839 -108973 30001448 30088936 30083207 30083208 30083231"/>
    </vehicle>
    <vehicle id="cars28800_178" depart="28872.52">
        <route edges="20035249 109686 30001364 30001365 30001367 30039277 30039278"/>
    </vehicle>
    <vehicle id="cars28800_179" depart="28872.55">
        <route edges="30083208 30083231 109110 109052 -108969 108942 108797 108611 108260"/>
    </vehicle>
    <vehicle id="cars28800_180" depart="28873.11">
        <route edges="7155256 4605051 30140177 30140178 109739 109728 109716 109685 109616 11485062 9638451 109516 30001462 30001463 109285 109176 30020544 30020545 109044 108942 108797 108611"/>
    </vehicle>
    <vehicle id="cars28800_181" depart="28873.30">
        <route edges="110000 5087274 109688 30122712 30122716 30122723"/>
    </vehicle>
    <vehicle id="cars28800_182" depart="28873.42">
        <route edges="109524 109506 30001367 30039277 30039278 30039286 30039287 30001418"/>
    </vehicle>
    <vehicle id="cars28800_183" depart="28873.44">