<additional xmlns:xsi="http://www.w3.org/2001/XMLSchema-instance" xsi:noNamespaceSchemaLocation="http://sumo.dlr.de/xsd/additional_file.xsd">
    <e1Detector file="outputs/e1output.xml" freq="5" friendlyPos="x" id="e1det_-108321_0" lane="-108321_0" pos="82.67999999999999"/>
    <e1Detector file="outputs/e1output.xml" freq="5" friendlyPos="x" id="e1det_-108321_1" lane="-108321_1" pos="82.67999999999999"/>
    <e1Detector file="outputs/e1output.xml" freq="5" friendlyPos="x" id="e1det_30030000_0" lane="30030000_0" pos="180.92000000000002"/>
    <e1Detector file="outputs/e1output.xml" freq="5" friendlyPos="x" id="e1det_30030000_1" lane="30030000_1" pos="180.92000000000002"/>
    <e1Detector file="outputs/e1output.xml" freq="5" friendlyPos="x" id="e1det_9638455_0" lane="9638455_0" pos="361.04"/>
    <e1Detector file="outputs/e1output.xml" freq="5" friendlyPos="x" id="e1det_9638455_1" lane="9638455_1" pos="361.04"/>
    <e1Detector file="outputs/e1output.xml" freq="5" friendlyPos="x" id="e1det_9638455_2" lane="9638455_2" pos="361.04"/>
    <e1Detector file="outputs/e1output.xml" freq="5" friendlyPos="x" id="e1det_-108949_0" lane="-108949_0" pos="201.55"/>
    <e1Detector file="outputs/e1output.xml" freq="5" friendlyPos="x" id="e1det_-108949_1" lane="-108949_1" pos="201.55"/>
    <e1Detector file="outputs/e1output.xml" freq="5" friendlyPos="x" id="e1det_-2146326_0" lane="-2146326_0" pos="206.20000000000002"/>
    <e1Detector file="outputs/e1output.xml" freq="5" friendlyPos="x" id="e1det_-2146326_1" lane="-2146326_1" pos="206.20000000000002"/>
    <e1Detector file="outputs/e1output.xml" freq="5" friendlyPos="x" id="e1det_30029993_0" lane="30029993_0" pos="92.55"/>
    <e1Detector file="outputs/e1output.xml" freq="5" friendlyPos="x" id="e1det_30029993_1" lane="30029993_1" pos="92.55"/>
    <e1Detector file="outputs/e1output.xml" freq="5" friendlyPos="x" id="e1det_30029993_2" lane="30029993_2" pos="92.55"/>
    <e1Detector file="outputs/e1output.xml" freq="5" friendlyPos="x" id="e1det_-20146485_0" lane="-20146485_0" pos="257.55"/>
    <e1Detector file="outputs/e1output.xml" freq="5" friendlyPos="x" id="e1det_-20146485_1" lane="-20146485_1" pos="257.55"/>
    <e1Detector file="outputs/e1output.xml" freq="5" friendlyPos="x" id="e1det_20146476_0" lane="20146476_0" pos="345.63"/>
    <e1Detector file="outputs/e1output.xml" freq="5" friendlyPos="x" id="e1det_20146476_1" lane="20146476_1" pos="345.63"/>
    <e1Detector file="outputs/e1output.xml" freq="5" friendlyPos="x" id="e1det_-30020723_0" lane="-30020723_0" pos="78.91"/>
    <e1Detector file="outputs/e1output.xml" freq="5" friendlyPos="x" id="e1det_109716_0" lane="109716_0" pos="107.41"/>
    <e1Detector file="outputs/e1output.xml" freq="5" friendlyPos="x" id="e1det_109716_1" lane="109716_1" pos="107.41"/>
    <e1Detector file="outputs/e1output.xml" freq="5" friendlyPos="x" id="e1det_109716_2" lane="109716_2" pos="107.41"/>
    <e1Detector file="outputs/e1output.xml" freq="5" friendlyPos="x" id="e1det_20035249_0" lane="20035249_0" pos="68.83"/>
    <e1Detector file="outputs/e1output.xml" freq="5" friendlyPos="x" id="e1det_20035249_1" lane="20035249_1" pos="68.83"/>
    <e1Detector file="outputs/e1output.xml" freq="5" friendlyPos="x" id="e1det_20035249_2" lane="20035249_2" pos="68.83"/>
    <e1Detector file="outputs/e1output.xml" freq="5" friendlyPos="x" id="e1det_30020724_0" lane="30020724_0" pos="162.62"/>
    <e1Detector file="outputs/e1output.xml" freq="5" friendlyPos="x" id="e1det_107193_0" lane="107193_0" pos="55.23"/>
    <e1Detector file="outputs/e1output.xml" freq="5" friendlyPos="x" id="e1det_107193_1" lane="107193_1" pos="55.23"/>
    <e1Detector file="outputs/e1output.xml" freq="5" friendlyPos="x" id="e1det_107193_2" lane="107193_2" pos="55.23"/>
    <e1Detector file="outputs/e1output.xml" freq="5" friendlyPos="x" id="e1det_107262_0" lane="107262_0" pos="318.66"/>
    <e1Detector file="outputs/e1output.xml" freq="5" friendlyPos="x" id="e1det_107262_1" lane="107262_1" pos="318.66"/>
    <e1Detector file="outputs/e1output.xml" freq="5" friendlyPos="x" id="e1det_107427_0" lane="107427_0" pos="229.3"/>
    <e1Detector file="outputs/e1output.xml" freq="5" friendlyPos="x" id="e1det_107427_1" lane="107427_1" pos="229.3"/>
    <e1Detector file="outputs/e1output.xml" freq="5" friendlyPos="x" id="e1det_107543_0" lane="107543_0" pos="403.17"/>
    <e1Detector file="outputs/e1output.xml" freq="5" friendlyPos="x" id="e1det_107543_1" lane="107543_1" pos="403.17"/>
    <e1Detector file="outputs/e1output.xml" freq="5" friendlyPos="x" id="e1det_107587_0" lane="107587_0" pos="108.00999999999999"/>
    <e1Detector file="outputs/e1output.xml" freq="5" friendlyPos="x" id="e1det_107613_0" lane="107613_0" pos="55.93"/>
    <e1Detector file="outputs/e1output.xml" freq="5" friendlyPos="x" id="e1det_107613_1" lane="107613_1" pos="55.93"/>
    <e1Detector file="outputs/e1output.xml" freq="5" friendlyPos="x" id="e1det_107613_2" lane="107613_2" pos="55.93"/>
    <e1Detector file="outputs/e1output.xml" freq="5" friendlyPos="x" id="e1det_107766_0" lane="107766_0" pos="220.20000000000002"/>
    <e1Detector file="outputs/e1output.xml" freq="5" friendlyPos="x" id="e1det_107766_1" lane="107766_1" pos="220.20000000000002"/>
    <e1Detector file="outputs/e1output.xml" freq="5" friendlyPos="x" id="e1det_107766_2" lane="107766_2" pos="220.20000000000002"/>
    <e1Detector file="outputs/e1output.xml" freq="5" friendlyPos="x" id="e1det_20146477_0" lane="20146477_0" pos="237.31"/>
    <e1Detector file="outputs/e1output.xml" freq="5" friendlyPos="x" id="e1det_20146477_1" lane="20146477_1" pos="237.31"/>
    <e1Detector file="outputs/e1output.xml" freq="5" friendlyPos="x" id="e1det_107795_0" lane="107795_0" pos="37.44"/>
    <e1Detector file="outputs/e1output.xml" freq="5" friendlyPos="x" id="e1det_107795_1" lane="107795_1" pos="37.44"/>
    <e1Detector file="outputs/e1output.xml" freq="5" friendlyPos="x" id="e1det_107795_2" lane="107795_2" pos="37.44"/>
    <e1Detector file="outputs/e1output.xml" freq="5" friendlyPos="x" id="e1det_107897_0" lane="107897_0" pos="277.37"/>
    <e1Detector file="outputs/e1output.xml" freq="5" friendlyPos="x" id="e1det_107897_1" lane="107897_1" pos="277.37"/>
    <e1Detector file="outputs/e1output.xml" freq="5" friendlyPos="x" id="e1det_107897_2" lane="107897_2" pos="277.37"/>
    <e1Detector file="outputs/e1output.xml" freq="5" friendlyPos="x" id="e1det_107941_0" lane="107941_0" pos="180.73000000000002"/>
    <e1Detector file="outputs/e1output.xml" freq="5" friendlyPos="x" id="e1det_107941_1" lane="107941_1" pos="180.73000000000002"/>
    <e1Detector file="outputs/e1output.xml" freq="5" friendlyPos="x" id="e1det_107941_2" lane="107941_2" pos="180.73000000000002"/>
    <e1Detector file="outputs/e1output.xml" freq="5" friendlyPos="x" id="e1det_20050652_0" lane="20050652_0" pos="224.37"/>
    <e1Detector file="outputs/e1output.xml" freq="5" friendlyPos="x" id="e1det_20050652_1" lane="20050652_1" pos="224.37"/>
    <e1Detector file="outputs/e1output.xml" freq="5" friendlyPos="x" id="e1det_20050652_2" lane="20050652_2" pos="224.37"/>
    <e1Detector file="outputs/e1output.xml" freq="5" friendlyPos="x" id="e1det_108009_0" lane="108009_0" pos="350.78000000000003"/>
    <e1Detector file="outputs/e1output.xml" freq="5" friendlyPos="x" id="e1det_108009_1" lane="108009_1" pos="350.78000000000003"/>
    <e1Detector file="outputs/e1output.xml" freq="5" friendlyPos="x" id="e1det_7204482_0" lane="7204482_0" pos="191.54000000000002"/>
    <e1Detector file="outputs/e1output.xml" freq="5" friendlyPos="x" id="e1det_7204482_1" lane="7204482_1" pos="191.54000000000002"/>
    <e1Detector file="outputs/e1output.xml" freq="5" friendlyPos="x" id="e1det_7204482_2" lane="7204482_2" pos="191.54000000000002"/>
    <e1Detector file="outputs/e1output.xml" freq="5" friendlyPos="x" id="e1det_108027_0" lane="108027_0" pos="187.46"/>
    <e1Detector file="outputs/e1output.xml" freq="5" friendlyPos="x" id="e1det_108027_1" lane="108027_1" pos="187.46"/>
    <e1Detector file="outputs/e1output.xml" freq="5" friendlyPos="x" id="e1det_108027_2" lane="108027_2" pos="187.46"/>
    <e1Detector file="outputs/e1output.xml" freq="5" friendlyPos="x" id="e1det_108322_0" lane="108322_0" pos="198.58"/>
    <e1Detector file="outputs/e1output.xml" freq="5" friendlyPos="x" id="e1det_108322_1" lane="108322_1" pos="198.58"/>
    <e1Detector file="outputs/e1output.xml" freq="5" friendlyPos="x" id="e1det_108322_2" lane="108322_2" pos="198.58"/>
    <e1Detector file="outputs/e1output.xml" freq="5" friendlyPos="x" id="e1det_6786837_0" lane="6786837_0" pos="221.17000000000002"/>
    <e1Detector file="outputs/e1output.xml" freq="5" friendlyPos="x" id="e1det_6786837_1" lane="6786837_1" pos="221.17000000000002"/>
    <e1Detector file="outputs/e1output.xml" freq="5" friendlyPos="x" id="e1det_6786837_2" lane="6786837_2" pos="221.17000000000002"/>
    <e1Detector file="outputs/e1output.xml" freq="5" friendlyPos="x" id="e1det_108327_0" lane="108327_0" pos="193.91000000000003"/>
    <e1Detector file="outputs/e1output.xml" freq="5" friendlyPos="x" id="e1det_108327_1" lane="108327_1" pos="193.91000000000003"/>
    <e1Detector file="outputs/e1output.xml" freq="5" friendlyPos="x" id="e1det_108327_2" lane="108327_2" pos="193.91000000000003"/>
    <e1Detector file="outputs/e1output.xml" freq="5" friendlyPos="x" id="e1det_108429_0" lane="108429_0" pos="143.36"/>
    <e1Detector file="outputs/e1output.xml" freq="5" friendlyPos="x" id="e1det_108429_1" lane="108429_1" pos="143.36"/>
    <e1Detector file="outputs/e1output.xml" freq="5" friendlyPos="x" id="e1det_108429_2" lane="108429_2" pos="143.36"/>
    <e1Detector file="outputs/e1output.xml" freq="5" friendlyPos="x" id="e1det_108537_0" lane="108537_0" pos="157.10000000000002"/>
    <e1Detector file="outputs/e1output.xml" freq="5" friendlyPos="x" id="e1det_108537_1" lane="108537_1" pos="157.10000000000002"/>
    <e1Detector file="outputs/e1output.xml" freq="5" friendlyPos="x" id="e1det_108537_2" lane="108537_2" pos="157.10000000000002"/>
    <e1Detector file="outputs/e1output.xml" freq="5" friendlyPos="x" id="e1det_108685_0" lane="108685_0" pos="103.32"/>
    <e1Detector file="outputs/e1output.xml" freq="5" friendlyPos="x" id="e1det_108685_1" lane="108685_1" pos="103.32"/>
    <e1Detector file="outputs/e1output.xml" freq="5" friendlyPos="x" id="e1det_30075799_0" lane="30075799_0" pos="356.1"/>
    <e1Detector file="outputs/e1output.xml" freq="5" friendlyPos="x" id="e1det_30075799_1" lane="30075799_1" pos="356.1"/>
    <e1Detector file="outputs/e1output.xml" freq="5" friendlyPos="x" id="e1det_30075799_2" lane="30075799_2" pos="356.1"/>
    <e1Detector file="outputs/e1output.xml" freq="5" friendlyPos="x" id="e1det_108797_0" lane="108797_0" pos="224.28"/>
    <e1Detector file="outputs/e1output.xml" freq="5" friendlyPos="x" id="e1det_108797_1" lane="108797_1" pos="224.28"/>
    <e1Detector file="outputs/e1output.xml" freq="5" friendlyPos="x" id="e1det_108797_2" lane="108797_2" pos="224.28"/>
    <e1Detector file="outputs/e1output.xml" freq="5" friendlyPos="x" id="e1det_108915_0" lane="108915_0" pos="381.2"/>
    <e1Detector file="outputs/e1output.xml" freq="5" friendlyPos="x" id="e1det_108915_1" lane="108915_1" pos="381.2"/>
    <e1Detector file="outputs/e1output.xml" freq="5" friendlyPos="x" id="e1det_108915_2" lane="108915_2" pos="381.2"/>
    <e1Detector file="outputs/e1output.xml" freq="5" friendlyPos="x" id="e1det_109176_0" lane="109176_0" pos="52.89"/>
    <e1Detector file="outputs/e1output.xml" freq="5" friendlyPos="x" id="e1det_109176_1" lane="109176_1" pos="52.89"/>
    <e1Detector file="outputs/e1output.xml" freq="5" friendlyPos="x" id="e1det_109176_2" lane="109176_2" pos="52.89"/>
    <e1Detector file="outputs/e1output.xml" freq="5" friendlyPos="x" id="e1det_30020570_0" lane="30020570_0" pos="14.180000000000001"/>
    <e1Detector file="outputs/e1output.xml" freq="5" friendlyPos="x" id="e1det_30020570_1" lane="30020570_1" pos="14.180000000000001"/>
    <e1Detector file="outputs/e1output.xml" freq="5" friendlyPos="x" id="e1det_109628_0" lane="109628_0" pos="149.61"/>
    <e1Detector file="outputs/e1output.xml" freq="5" friendlyPos="x" id="e1det_109628_1" lane="109628_1" pos="149.61"/>
    <e1Detector file="outputs/e1output.xml" freq="5" friendlyPos="x" id="e1det_11485062_0" lane="11485062_0" pos="348.92"/>
    <e1Detector file="outputs/e1output.xml" freq="5" friendlyPos="x" id="e1det_11485062_1" lane="11485062_1" pos="348.92"/>
    <e1Detector file="outputs/e1output.xml" freq="5" friendlyPos="x" id="e1det_11485062_2" lane="11485062_2" pos="348.92"/>
    <e1Detector file="outputs/e1output.xml" freq="5" friendlyPos="x" id="e1det_109685_0" lane="109685_0" pos="317.61"/>
    <e1Detector file="outputs/e1output.xml" freq="5" friendlyPos="x" id="e1det_109685_1" lane="109685_1" pos="317.61"/>
    <e1Detector file="outputs/e1output.xml" freq="5" friendlyPos="x" id="e1det_109685_2" lane="109685_2" pos="317.61"/>
    <e1Detector file="outputs/e1output.xml" freq="5" friendlyPos="x" id="e1det_110000_0" lane="110000_0" pos="208.55"/>
    <e1Detector file="outputs/e1output.xml" freq="5" friendlyPos="x" id="e1det_110000_1" lane="110000_1" pos="208.55"/>
    <e1Detector file="outputs/e1output.xml" freq="5" friendlyPos="x" id="e1det_110000_2" lane="110000_2" pos="208.55"/>
    <e1Detector file="outputs/e1output.xml" freq="5" friendlyPos="x" id="e1det_13232758_0" lane="13232758_0" pos="132.85000000000002"/>
    <e1Detector file="outputs/e1output.xml" freq="5" friendlyPos="x" id="e1det_13232758_1" lane="13232758_1" pos="132.85000000000002"/>
    <e1Detector file="outputs/e1output.xml" freq="5" friendlyPos="x" id="e1det_13232758_2" lane="13232758_2" pos="132.85000000000002"/>
    <e1Detector file="outputs/e1output.xml" freq="5" friendlyPos="x" id="e1det_30039278_0" lane="30039278_0" pos="148.43"/>
    <e1Detector file="outputs/e1output.xml" freq="5" friendlyPos="x" id="e1det_30039278_1" lane="30039278_1" pos="148.43"/>
    <e1Detector file="outputs/e1output.xml" freq="5" friendlyPos="x" id="e1det_30039278_2" lane="30039278_2" pos="148.43"/>
    <e1Detector file="outputs/e1output.xml" freq="5" friendlyPos="x" id="e1det_30122712_0" lane="30122712_0" pos="131.46"/>
    <e1Detector file="outputs/e1output.xml" freq="5" friendlyPos="x" id="e1det_30122712_1" lane="30122712_1" pos="131.46"/>
    <e1Detector file="outputs/e1output.xml" freq="5" friendlyPos="x" id="e1det_30122712_2" lane="30122712_2" pos="131.46"/>
    <e1Detector file="outputs/e1output.xml" freq="5" friendlyPos="x" id="e1det_3648609_0" lane="3648609_0" pos="160.58"/>
    <e1Detector file="outputs/e1output.xml" freq="5" friendlyPos="x" id="e1det_3648609_1" lane="3648609_1" pos="160.58"/>
    <e1Detector file="outputs/e1output.xml" freq="5" friendlyPos="x" id="e1det_3648609_2" lane="3648609_2" pos="160.58"/>
    <e1Detector file="outputs/e1output.xml" freq="5" friendlyPos="x" id="e1det_4666869_0" lane="4666869_0" pos="259.73"/>
    <e1Detector file="outputs/e1output.xml" freq="5" friendlyPos="x" id="e1det_4666869_1" lane="4666869_1" pos="259.73"/>
    <e1Detector file="outputs/e1output.xml" freq="5" friendlyPos="x" id="e1det_4666869_2" lane="4666869_2" pos="259.73"/>
    <e1Detector file="outputs/e1output.xml" freq="5" friendlyPos="x" id="e1det_7155256_0" lane="7155256_0" pos="217.16000000000003"/>
    <e1Detector file="outputs/e1output.xml" freq="5" friendlyPos="x" id="e1det_7155256_1" lane="7155256_1" pos="217.16000000000003"/>
    <e1Detector file="outputs/e1output.xml" freq="5" friendlyPos="x" id="e1det_7155256_2" lane="7155256_2" pos="217.16000000000003"/>
    <e1Detector file="outputs/e1output.xml" freq="5" friendlyPos="x" id="e1det_9011650_0" lane="9011650_0" pos="230.06"/>
    <e1Detector file="outputs/e1output.xml" freq="5" friendlyPos="x" id="e1det_9011650_1" lane="9011650_1" pos="230.06"/>
    <e1Detector file="outputs/e1output.xml" freq="5" friendlyPos="x" id="e1det_9011650_2" lane="9011650_2" pos="230.06"/>
    <e1Detector file="outputs/e1output.xml" freq="5" friendlyPos="x" id="e1det_9638451_0" lane="9638451_0" pos="111.96"/>
    <e1Detector file="outputs/e1output.xml" freq="5" friendlyPos="x" id="e1det_9638451_1" lane="9638451_1" pos="111.96"/>
    <e1Detector file="outputs/e1output.xml" freq="5" friendlyPos="x" id="e1det_9638451_2" lane="9638451_2" pos="111.96"/>
    <e1Detector file="outputs/e1output.xml" freq="5" friendlyPos="x" id="e1det_9910076_0" lane="9910076_0" pos="236.48000000000002"/>
    <e1Detector file="outputs/e1output.xml" freq="5" friendlyPos="x" id="e1det_9910076_1" lane="9910076_1" pos="236.48000000000002"/>
    <e1Detector file="outputs/e1output.xml" freq="5" friendlyPos="x" id="e1det_9910076_2" lane="9910076_2" pos="236.48000000000002"/>
</additional>
