<additional xmlns:xsi="http://www.w3.org/2001/XMLSchema-instance" xsi:noNamespaceSchemaLocation="http://sumo.dlr.de/xsd/additional_file.xsd">
    <e3Detector id="e3_13446898_107979" freq="5" file="outputs/e3output.xml">
        <detEntry lane="107979_0" pos="0.20"/>
        <detEntry lane="107979_1" pos="0.20"/>
        <detEntry lane="107979_2" pos="0.20"/>
        <detExit lane="107979_0" pos="-.1"/>
        <detExit lane="107979_1" pos="-.1"/>
        <detExit lane="107979_2" pos="-.1"/>
    </e3Detector>
    <e3Detector id="e3_13446898_108031" freq="5" file="outputs/e3output.xml">
        <detEntry lane="108134_0" pos="238.09"/>
        <detEntry lane="108134_1" pos="238.09"/>
        <detEntry lane="108204_0" pos="56.87"/>
        <detEntry lane="108204_1" pos="56.87"/>
        <detEntry lane="20050672_0" pos="50.90"/>
        <detEntry lane="20050672_1" pos="50.90"/>
        <detExit lane="108031_0" pos="-.1"/>
        <detExit lane="108031_1" pos="-.1"/>
    </e3Detector>
    <e3Detector id="e3_13447022_-108031" freq="5" file="outputs/e3output.xml">
        <detEntry lane="107979_0" pos="15.52"/>
        <detEntry lane="107979_1" pos="15.52"/>
        <detEntry lane="107979_2" pos="15.52"/>
        <detExit lane="-108031_0" pos="-.1"/>
        <detExit lane="-108031_1" pos="-.1"/>
    </e3Detector>
    <e3Detector id="e3_13447022_108133" freq="5" file="outputs/e3output.xml">
        <detEntry lane="-108205_0" pos="163.16"/>
        <detEntry lane="-108205_1" pos="163.16"/>
        <detEntry lane="108134_0" pos="121.37"/>
        <detEntry lane="108134_1" pos="121.37"/>
        <detEntry lane="108282_0" pos="43.50"/>
        <detEntry lane="108282_1" pos="43.50"/>
        <detExit lane="108133_0" pos="-.1"/>
        <detExit lane="108133_1" pos="-.1"/>
    </e3Detector>
    <e3Detector id="e3_13447022_20050672" freq="5" file="outputs/e3output.xml">
        <detEntry lane="20050671_0" pos="233.14"/>
        <detEntry lane="20050671_1" pos="233.14"/>
        <detExit lane="20050672_0" pos="-.1"/>
        <detExit lane="20050672_1" pos="-.1"/>
    </e3Detector>
    <e3Detector id="e3_13447056_-108134" freq="5" file="outputs/e3output.xml">
        <detEntry lane="-108134_0" pos="11.54"/>
        <detEntry lane="-108134_1" pos="11.54"/>
        <detExit lane="-108134_0" pos="-.1"/>
        <detExit lane="-108134_1" pos="-.1"/>
    </e3Detector>
    <e3Detector id="e3_13447056_108115" freq="5" file="outputs/e3output.xml">
        <detEntry lane="108115_0" pos="0.20"/>
        <detEntry lane="108115_1" pos="0.20"/>
        <detExit lane="108115_0" pos="-.1"/>
        <detExit lane="108115_1" pos="-.1"/>
    </e3Detector>
    <e3Detector id="e3_13447056_108205" freq="5" file="outputs/e3output.xml">
        <detEntry lane="-108204_0" pos="53.33"/>
        <detEntry lane="-108204_1" pos="53.33"/>
        <detEntry lane="108282_0" pos="76.36"/>
        <detEntry lane="108282_1" pos="76.36"/>
        <detExit lane="108205_0" pos="-.1"/>
        <detExit lane="108205_1" pos="-.1"/>
    </e3Detector>
    <e3Detector id="e3_13447121_-108115" freq="5" file="outputs/e3output.xml">
        <detEntry lane="-108134_0" pos="136.52"/>
        <detEntry lane="-108134_1" pos="136.52"/>
        <detEntry lane="108205_0" pos="97.99"/>
        <detEntry lane="108205_1" pos="97.99"/>
        <detExit lane="-108115_0" pos="-.1"/>
        <detExit lane="-108115_1" pos="-.1"/>
    </e3Detector>
    <e3Detector id="e3_13447153_-108133" freq="5" file="outputs/e3output.xml">
        <detEntry lane="107979_0" pos="125.35"/>
        <detEntry lane="107979_1" pos="125.35"/>
        <detEntry lane="107979_2" pos="125.35"/>
        <detEntry lane="20050672_0" pos="44.01"/>
        <detEntry lane="20050672_1" pos="44.01"/>
        <detExit lane="-108133_0" pos="-.1"/>
        <detExit lane="-108133_1" pos="-.1"/>
    </e3Detector>
    <e3Detector id="e3_13447153_108134" freq="5" file="outputs/e3output.xml">
        <detEntry lane="108134_0" pos="11.54"/>
        <detEntry lane="108134_1" pos="11.54"/>
        <detExit lane="108134_0" pos="-.1"/>
        <detExit lane="108134_1" pos="-.1"/>
    </e3Detector>
    <e3Detector id="e3_13447153_108204" freq="5" file="outputs/e3output.xml">
        <detEntry lane="-108205_0" pos="53.33"/>
        <detEntry lane="-108205_1" pos="53.33"/>
        <detEntry lane="108282_0" pos="0.20"/>
        <detEntry lane="108282_1" pos="0.20"/>
        <detExit lane="108204_0" pos="-.1"/>
        <detExit lane="108204_1" pos="-.1"/>
    </e3Detector>
    <e3Detector id="e3_13447260_-108204" freq="5" file="outputs/e3output.xml">
        <detEntry lane="-108031_0" pos="56.87"/>
        <detEntry lane="-108031_1" pos="56.87"/>
        <detEntry lane="108134_0" pos="91.86"/>
        <detEntry lane="108134_1" pos="91.86"/>
        <detEntry lane="20050672_0" pos="124.33"/>
        <detEntry lane="20050672_1" pos="124.33"/>
        <detExit lane="-108204_0" pos="-.1"/>
        <detExit lane="-108204_1" pos="-.1"/>
    </e3Detector>
    <e3Detector id="e3_13447260_-108205" freq="5" file="outputs/e3output.xml">
        <detEntry lane="-108134_0" pos="234.55"/>
        <detEntry lane="-108134_1" pos="234.55"/>
        <detEntry lane="108115_0" pos="97.99"/>
        <detEntry lane="108115_1" pos="97.99"/>
        <detExit lane="-108205_0" pos="-.1"/>
        <detExit lane="-108205_1" pos="-.1"/>
    </e3Detector>
    <e3Detector id="e3_13447260_108282" freq="5" file="outputs/e3output.xml">
        <detEntry lane="108282_0" pos="0.20"/>
        <detEntry lane="108282_1" pos="0.20"/>
        <detExit lane="108282_0" pos="-.1"/>
        <detExit lane="108282_1" pos="-.1"/>
    </e3Detector>
    <e3Detector id="e3_13447265_108259" freq="5" file="outputs/e3output.xml">
        <detEntry lane="108611_0" pos="212.04"/>
        <detEntry lane="108611_1" pos="212.04"/>
        <detEntry lane="108611_2" pos="212.04"/>
        <detExit lane="108259_0" pos="-.1"/>
        <detExit lane="108259_1" pos="-.1"/>
    </e3Detector>
    <e3Detector id="e3_13447337_-108259" freq="5" file="outputs/e3output.xml">
        <detEntry lane="-108259_0" pos="0.20"/>
        <detEntry lane="-108259_1" pos="0.20"/>
        <detExit lane="-108259_0" pos="-.1"/>
        <detExit lane="-108259_1" pos="-.1"/>
    </e3Detector>
    <e3Detector id="e3_13447337_108611" freq="5" file="outputs/e3output.xml">
        <detEntry lane="108611_0" pos="121.25"/>
        <detEntry lane="108611_1" pos="121.25"/>
        <detEntry lane="108611_2" pos="121.25"/>
        <detExit lane="108611_0" pos="-.1"/>
        <detExit lane="108611_1" pos="-.1"/>
        <detExit lane="108611_2" pos="-.1"/>
    </e3Detector>
    <e3Detector id="e3_13447163_108264" freq="5" file="outputs/e3output.xml">
        <detEntry lane="108294_0" pos="57.24"/>
        <detEntry lane="108294_1" pos="57.24"/>
        <detEntry lane="108503_0" pos="208.11"/>
        <detEntry lane="108503_1" pos="208.11"/>
        <detExit lane="108264_0" pos="-.1"/>
        <detExit lane="108264_1" pos="-.1"/>
    </e3Detector>
    <e3Detector id="e3_13447345_-108264" freq="5" file="outputs/e3output.xml">
        <detEntry lane="-108264_0" pos="0.20"/>
        <detEntry lane="-108264_1" pos="0.20"/>
        <detExit lane="-108264_0" pos="-.1"/>
        <detExit lane="-108264_1" pos="-.1"/>
    </e3Detector>
    <e3Detector id="e3_13447345_108294" freq="5" file="outputs/e3output.xml">
        <detEntry lane="108321_0" pos="0.20"/>
        <detEntry lane="108321_1" pos="0.20"/>
        <detEntry lane="108525_0" pos="141.10"/>
        <detEntry lane="108525_1" pos="141.10"/>
        <detExit lane="108294_0" pos="-.1"/>
        <detExit lane="108294_1" pos="-.1"/>
    </e3Detector>
    <e3Detector id="e3_13447345_108503" freq="5" file="outputs/e3output.xml">
        <detEntry lane="-108525_0" pos="291.97"/>
        <detEntry lane="-108525_1" pos="291.97"/>
        <detEntry lane="108604_0" pos="112.93"/>
        <detEntry lane="108604_1" pos="112.93"/>
        <detExit lane="108503_0" pos="-.1"/>
        <detExit lane="108503_1" pos="-.1"/>
    </e3Detector>
    <e3Detector id="e3_13447362_-108282" freq="5" file="outputs/e3output.xml">
        <detEntry lane="-108133_0" pos="43.50"/>
        <detEntry lane="-108133_1" pos="43.50"/>
        <detEntry lane="-108205_0" pos="76.36"/>
        <detEntry lane="-108205_1" pos="76.36"/>
        <detEntry lane="108134_0" pos="195.21"/>
        <detEntry lane="108134_1" pos="195.21"/>
        <detExit lane="-108282_0" pos="-.1"/>
        <detExit lane="-108282_1" pos="-.1"/>
    </e3Detector>
    <e3Detector id="e3_13447271_108260" freq="5" file="outputs/e3output.xml">
        <detEntry lane="-108259_0" pos="0.20"/>
        <detEntry lane="-108259_1" pos="0.20"/>
        <detEntry lane="108611_0" pos="173.56"/>
        <detEntry lane="108611_1" pos="173.56"/>
        <detEntry lane="108611_2" pos="173.56"/>
        <detExit lane="108260_0" pos="-.1"/>
        <detExit lane="108260_1" pos="-.1"/>
        <detExit lane="108260_2" pos="-.1"/>
    </e3Detector>
    <e3Detector id="e3_13447271_108287" freq="5" file="outputs/e3output.xml">
        <detEntry lane="108417_0" pos="0.20"/>
        <detEntry lane="108417_1" pos="0.20"/>
        <detEntry lane="108568_0" pos="243.52"/>
        <detEntry lane="108568_1" pos="243.52"/>
        <detExit lane="108287_0" pos="-.1"/>
        <detExit lane="108287_1" pos="-.1"/>
    </e3Detector>
    <e3Detector id="e3_13447368_-108287" freq="5" file="outputs/e3output.xml">
        <detEntry lane="-108259_0" pos="0.20"/>
        <detEntry lane="-108259_1" pos="0.20"/>
        <detEntry lane="108611_0" pos="278.60"/>
        <detEntry lane="108611_1" pos="278.60"/>
        <detEntry lane="108611_2" pos="278.60"/>
        <detExit lane="-108287_0" pos="-.1"/>
        <detExit lane="-108287_1" pos="-.1"/>
    </e3Detector>
    <e3Detector id="e3_13447368_108417" freq="5" file="outputs/e3output.xml">
        <detEntry lane="108417_0" pos="0.20"/>
        <detEntry lane="108417_1" pos="0.20"/>
        <detExit lane="108417_0" pos="-.1"/>
        <detExit lane="108417_1" pos="-.1"/>
    </e3Detector>
    <e3Detector id="e3_13447368_108568" freq="5" file="outputs/e3output.xml">
        <detEntry lane="108568_0" pos="138.48"/>
        <detEntry lane="108568_1" pos="138.48"/>
        <detExit lane="108568_0" pos="-.1"/>
        <detExit lane="108568_1" pos="-.1"/>
    </e3Detector>
    <e3Detector id="e3_13447378_-108294" freq="5" file="outputs/e3output.xml">
        <detEntry lane="-108264_0" pos="57.24"/>
        <detEntry lane="-108264_1" pos="57.24"/>
        <detEntry lane="108503_0" pos="64.95"/>
        <detEntry lane="108503_1" pos="64.95"/>
        <detExit lane="-108294_0" pos="-.1"/>
        <detExit lane="-108294_1" pos="-.1"/>
    </e3Detector>
    <e3Detector id="e3_13447378_108321" freq="5" file="outputs/e3output.xml">
        <detEntry lane="108321_0" pos="0.20"/>
        <detEntry lane="108321_1" pos="0.20"/>
        <detExit lane="108321_0" pos="-.1"/>
        <detExit lane="108321_1" pos="-.1"/>
    </e3Detector>
    <e3Detector id="e3_13447378_108525" freq="5" file="outputs/e3output.xml">
        <detEntry lane="108525_0" pos="59.06"/>
        <detEntry lane="108525_1" pos="59.06"/>
        <detExit lane="108525_0" pos="-.1"/>
        <detExit lane="108525_1" pos="-.1"/>
    </e3Detector>
    <e3Detector id="e3_13447415_-108321" freq="5" file="outputs/e3output.xml">
        <detEntry lane="-108264_0" pos="140.12"/>
        <detEntry lane="-108264_1" pos="140.12"/>
        <detEntry lane="108503_0" pos="147.83"/>
        <detEntry lane="108503_1" pos="147.83"/>
        <detEntry lane="108525_0" pos="141.94"/>
        <detEntry lane="108525_1" pos="141.94"/>
        <detExit lane="-108321_0" pos="-.1"/>
        <detExit lane="-108321_1" pos="-.1"/>
    </e3Detector>
    <e3Detector id="e3_13447415_30030000" freq="5" file="outputs/e3output.xml">
        <detEntry lane="30029999_0" pos="19.07"/>
        <detEntry lane="30029999_1" pos="19.07"/>
        <detExit lane="30030000_0" pos="-.1"/>
        <detExit lane="30030000_1" pos="-.1"/>
    </e3Detector>
    <e3Detector id="e3_13447415_9638455" freq="5" file="outputs/e3output.xml">
        <detEntry lane="9638455_0" pos="111.24"/>
        <detEntry lane="9638455_1" pos="111.24"/>
        <detEntry lane="9638455_2" pos="111.24"/>
        <detExit lane="9638455_0" pos="-.1"/>
        <detExit lane="9638455_1" pos="-.1"/>
        <detExit lane="9638455_2" pos="-.1"/>
    </e3Detector>
    <e3Detector id="e3_13447314_108396" freq="5" file="outputs/e3output.xml">
        <detEntry lane="-108397_0" pos="248.60"/>
        <detEntry lane="-108397_1" pos="248.60"/>
        <detEntry lane="108583_0" pos="195.80"/>
        <detEntry lane="108583_1" pos="195.80"/>
        <detExit lane="108396_0" pos="-.1"/>
        <detExit lane="108396_1" pos="-.1"/>
    </e3Detector>
    <e3Detector id="e3_13447505_-108396" freq="5" file="outputs/e3output.xml">
        <detEntry lane="-108396_0" pos="0.20"/>
        <detEntry lane="-108396_1" pos="0.20"/>
        <detExit lane="-108396_0" pos="-.1"/>
        <detExit lane="-108396_1" pos="-.1"/>
    </e3Detector>
    <e3Detector id="e3_13447505_-108397" freq="5" file="outputs/e3output.xml">
        <detEntry lane="-108397_0" pos="13.91"/>
        <detEntry lane="-108397_1" pos="13.91"/>
        <detExit lane="-108397_0" pos="-.1"/>
        <detExit lane="-108397_1" pos="-.1"/>
    </e3Detector>
    <e3Detector id="e3_13447505_108583" freq="5" file="outputs/e3output.xml">
        <detEntry lane="108714_0" pos="162.38"/>
        <detEntry lane="108714_1" pos="162.38"/>
        <detExit lane="108583_0" pos="-.1"/>
        <detExit lane="108583_1" pos="-.1"/>
    </e3Detector>
    <e3Detector id="e3_13447229_108397" freq="5" file="outputs/e3output.xml">
        <detEntry lane="108397_0" pos="13.91"/>
        <detEntry lane="108397_1" pos="13.91"/>
        <detExit lane="108397_0" pos="-.1"/>
        <detExit lane="108397_1" pos="-.1"/>
    </e3Detector>
    <e3Detector id="e3_13447533_-108417" freq="5" file="outputs/e3output.xml">
        <detEntry lane="108260_0" pos="51.97"/>
        <detEntry lane="108260_1" pos="51.97"/>
        <detEntry lane="108260_2" pos="51.97"/>
        <detEntry lane="108568_0" pos="283.10"/>
        <detEntry lane="108568_1" pos="283.10"/>
        <detExit lane="-108417_0" pos="-.1"/>
        <detExit lane="-108417_1" pos="-.1"/>
    </e3Detector>
    <e3Detector id="e3_13447638_-108503" freq="5" file="outputs/e3output.xml">
        <detEntry lane="-108264_0" pos="208.11"/>
        <detEntry lane="-108264_1" pos="208.11"/>
        <detEntry lane="108294_0" pos="64.95"/>
        <detEntry lane="108294_1" pos="64.95"/>
        <detExit lane="-108503_0" pos="-.1"/>
        <detExit lane="-108503_1" pos="-.1"/>
    </e3Detector>
    <e3Detector id="e3_13447638_-108525" freq="5" file="outputs/e3output.xml">
        <detEntry lane="-108525_0" pos="59.06"/>
        <detEntry lane="-108525_1" pos="59.06"/>
        <detExit lane="-108525_0" pos="-.1"/>
        <detExit lane="-108525_1" pos="-.1"/>
    </e3Detector>
    <e3Detector id="e3_13447638_108604" freq="5" file="outputs/e3output.xml">
        <detEntry lane="108604_0" pos="0.20"/>
        <detEntry lane="108604_1" pos="0.20"/>
        <detExit lane="108604_0" pos="-.1"/>
        <detExit lane="108604_1" pos="-.1"/>
    </e3Detector>
    <e3Detector id="e3_13447609_-30144774" freq="5" file="outputs/e3output.xml">
        <detEntry lane="-30144774_0" pos="0.20"/>
        <detExit lane="-30144774_0" pos="-.1"/>
    </e3Detector>
    <e3Detector id="e3_13447609_108536" freq="5" file="outputs/e3output.xml">
        <detEntry lane="108596_0" pos="39.49"/>
        <detEntry lane="108596_1" pos="39.49"/>
        <detEntry lane="108596_2" pos="39.49"/>
        <detExit lane="108536_0" pos="-.1"/>
        <detExit lane="108536_1" pos="-.1"/>
    </e3Detector>
    <e3Detector id="e3_13447705_-108536" freq="5" file="outputs/e3output.xml">
        <detEntry lane="-108536_0" pos="0.20"/>
        <detEntry lane="-108536_1" pos="0.20"/>
        <detExit lane="-108536_0" pos="-.1"/>
        <detExit lane="-108536_1" pos="-.1"/>
    </e3Detector>
    <e3Detector id="e3_13447705_108596" freq="5" file="outputs/e3output.xml">
        <detEntry lane="108596_0" pos="0.20"/>
        <detEntry lane="108596_1" pos="0.20"/>
        <detEntry lane="108596_2" pos="0.20"/>
        <detExit lane="108596_0" pos="-.1"/>
        <detExit lane="108596_1" pos="-.1"/>
        <detExit lane="108596_2" pos="-.1"/>
    </e3Detector>
    <e3Detector id="e3_13447615_-30029999" freq="5" file="outputs/e3output.xml">
        <detEntry lane="-30030000_0" pos="19.07"/>
        <detEntry lane="-30030000_1" pos="19.07"/>
        <detExit lane="-30029999_0" pos="-.1"/>
        <detExit lane="-30029999_1" pos="-.1"/>
    </e3Detector>
    <e3Detector id="e3_13447615_-5101721" freq="5" file="outputs/e3output.xml">
        <detEntry lane="-5101721_0" pos="0.20"/>
        <detEntry lane="-5101721_1" pos="0.20"/>
        <detExit lane="-5101721_0" pos="-.1"/>
        <detExit lane="-5101721_1" pos="-.1"/>
    </e3Detector>
    <e3Detector id="e3_13447615_108555" freq="5" file="outputs/e3output.xml">
        <detEntry lane="108686_0" pos="57.67"/>
        <detEntry lane="108686_1" pos="57.67"/>
        <detEntry lane="108726_0" pos="30.46"/>
        <detEntry lane="108726_1" pos="30.46"/>
        <detExit lane="108555_0" pos="-.1"/>
        <detExit lane="108555_1" pos="-.1"/>
    </e3Detector>
    <e3Detector id="e3_13447750_-108555" freq="5" file="outputs/e3output.xml">
        <detEntry lane="-30030000_0" pos="116.39"/>
        <detEntry lane="-30030000_1" pos="116.39"/>
        <detEntry lane="-5101721_0" pos="0.20"/>
        <detEntry lane="-5101721_1" pos="0.20"/>
        <detExit lane="-108555_0" pos="-.1"/>
        <detExit lane="-108555_1" pos="-.1"/>
    </e3Detector>
    <e3Detector id="e3_13447750_108686" freq="5" file="outputs/e3output.xml">
        <detEntry lane="-108685_0" pos="63.87"/>
        <detEntry lane="-108685_1" pos="63.87"/>
        <detEntry lane="108728_0" pos="45.56"/>
        <detEntry lane="108728_1" pos="45.56"/>
        <detEntry lane="108877_0" pos="194.53"/>
        <detEntry lane="108877_1" pos="194.53"/>
        <detExit lane="108686_0" pos="-.1"/>
        <detExit lane="108686_1" pos="-.1"/>
    </e3Detector>
    <e3Detector id="e3_13447750_108726" freq="5" file="outputs/e3output.xml">
        <detEntry lane="-108735_0" pos="15.20"/>
        <detEntry lane="-108735_1" pos="15.20"/>
        <detEntry lane="30001427_0" pos="46.78"/>
        <detEntry lane="30001427_1" pos="46.78"/>
        <detEntry lane="30029963_0" pos="94.44"/>
        <detEntry lane="30029963_1" pos="94.44"/>
        <detExit lane="108726_0" pos="-.1"/>
        <detExit lane="108726_1" pos="-.1"/>
    </e3Detector>
    <e3Detector id="e3_13447762_-108568" freq="5" file="outputs/e3output.xml">
        <detEntry lane="-108568_0" pos="138.48"/>
        <detEntry lane="-108568_1" pos="138.48"/>
        <detExit lane="-108568_0" pos="-.1"/>
        <detExit lane="-108568_1" pos="-.1"/>
    </e3Detector>
    <e3Detector id="e3_13447787_-108583" freq="5" file="outputs/e3output.xml">
        <detEntry lane="-108396_0" pos="195.80"/>
        <detEntry lane="-108396_1" pos="195.80"/>
        <detEntry lane="-108397_0" pos="225.02"/>
        <detEntry lane="-108397_1" pos="225.02"/>
        <detExit lane="-108583_0" pos="-.1"/>
        <detExit lane="-108583_1" pos="-.1"/>
    </e3Detector>
    <e3Detector id="e3_13447787_108714" freq="5" file="outputs/e3output.xml">
        <detEntry lane="-108713_0" pos="127.94"/>
        <detEntry lane="-108713_1" pos="127.94"/>
        <detEntry lane="108828_0" pos="96.02"/>
        <detEntry lane="108828_1" pos="96.02"/>
        <detExit lane="108714_0" pos="-.1"/>
        <detExit lane="108714_1" pos="-.1"/>
    </e3Detector>
    <e3Detector id="e3_13447820_-108604" freq="5" file="outputs/e3output.xml">
        <detEntry lane="-108503_0" pos="112.93"/>
        <detEntry lane="-108503_1" pos="112.93"/>
        <detEntry lane="-108525_0" pos="189.08"/>
        <detEntry lane="-108525_1" pos="189.08"/>
        <detExit lane="-108604_0" pos="-.1"/>
        <detExit lane="-108604_1" pos="-.1"/>
    </e3Detector>
    <e3Detector id="e3_13447880_108685" freq="5" file="outputs/e3output.xml">
        <detEntry lane="-108686_0" pos="63.87"/>
        <detEntry lane="-108686_1" pos="63.87"/>
        <detEntry lane="-5101676_0" pos="3.34"/>
        <detEntry lane="-5101676_1" pos="3.34"/>
        <detEntry lane="108735_0" pos="20.79"/>
        <detEntry lane="108735_1" pos="20.79"/>
        <detEntry lane="108877_0" pos="87.70"/>
        <detEntry lane="108877_1" pos="87.70"/>
        <detExit lane="108685_0" pos="-.1"/>
        <detExit lane="108685_1" pos="-.1"/>
    </e3Detector>
    <e3Detector id="e3_13447880_30075799" freq="5" file="outputs/e3output.xml">
        <detEntry lane="30075799_0" pos="106.30"/>
        <detEntry lane="30075799_1" pos="106.30"/>
        <detEntry lane="30075799_2" pos="106.30"/>
        <detExit lane="30075799_0" pos="-.1"/>
        <detExit lane="30075799_1" pos="-.1"/>
        <detExit lane="30075799_2" pos="-.1"/>
    </e3Detector>
    <e3Detector id="e3_13447939_-108685" freq="5" file="outputs/e3output.xml">
        <detEntry lane="-108685_0" pos="0.20"/>
        <detEntry lane="-108685_1" pos="0.20"/>
        <detExit lane="-108685_0" pos="-.1"/>
        <detExit lane="-108685_1" pos="-.1"/>
    </e3Detector>
    <e3Detector id="e3_13447939_-108686" freq="5" file="outputs/e3output.xml">
        <detEntry lane="-108555_0" pos="57.67"/>
        <detEntry lane="-108555_1" pos="57.67"/>
        <detEntry lane="108726_0" pos="143.49"/>
        <detEntry lane="108726_1" pos="143.49"/>
        <detExit lane="-108686_0" pos="-.1"/>
        <detExit lane="-108686_1" pos="-.1"/>
    </e3Detector>
    <e3Detector id="e3_13447939_108728" freq="5" file="outputs/e3output.xml">
        <detEntry lane="-108726_0" pos="100.41"/>
        <detEntry lane="-108726_1" pos="100.41"/>
        <detEntry lane="-5101676_0" pos="0.20"/>
        <detEntry lane="-5101676_1" pos="0.20"/>
        <detEntry lane="30001427_0" pos="30.91"/>
        <detEntry lane="30001427_1" pos="30.91"/>
        <detEntry lane="30029963_0" pos="78.57"/>
        <detEntry lane="30029963_1" pos="78.57"/>
        <detExit lane="108728_0" pos="-.1"/>
        <detExit lane="108728_1" pos="-.1"/>
    </e3Detector>
    <e3Detector id="e3_13447939_108877" freq="5" file="outputs/e3output.xml">
        <detEntry lane="-30029962_0" pos="118.51"/>
        <detEntry lane="-30029962_1" pos="118.51"/>
        <detEntry lane="108949_0" pos="185.93"/>
        <detEntry lane="108949_1" pos="185.93"/>
        <detExit lane="108877_0" pos="-.1"/>
        <detExit lane="108877_1" pos="-.1"/>
    </e3Detector>
    <e3Detector id="e3_13447851_108704" freq="5" file="outputs/e3output.xml">
        <detEntry lane="108840_0" pos="113.69"/>
        <detEntry lane="108840_1" pos="113.69"/>
        <detEntry lane="108867_0" pos="113.79"/>
        <detEntry lane="108867_1" pos="113.79"/>
        <detExit lane="108704_0" pos="-.1"/>
        <detExit lane="108704_1" pos="-.1"/>
    </e3Detector>
    <e3Detector id="e3_13447966_-108704" freq="5" file="outputs/e3output.xml">
        <detEntry lane="-108704_0" pos="0.20"/>
        <detEntry lane="-108704_1" pos="0.20"/>
        <detExit lane="-108704_0" pos="-.1"/>
        <detExit lane="-108704_1" pos="-.1"/>
    </e3Detector>
    <e3Detector id="e3_13447966_108840" freq="5" file="outputs/e3output.xml">
        <detEntry lane="108840_0" pos="30.64"/>
        <detEntry lane="108840_1" pos="30.64"/>
        <detExit lane="108840_0" pos="-.1"/>
        <detExit lane="108840_1" pos="-.1"/>
    </e3Detector>
    <e3Detector id="e3_13447966_108867" freq="5" file="outputs/e3output.xml">
        <detEntry lane="108867_0" pos="30.74"/>
        <detEntry lane="108867_1" pos="30.74"/>
        <detExit lane="108867_0" pos="-.1"/>
        <detExit lane="108867_1" pos="-.1"/>
    </e3Detector>
    <e3Detector id="e3_13447741_108713" freq="5" file="outputs/e3output.xml">
        <detEntry lane="-108714_0" pos="127.94"/>
        <detEntry lane="-108714_1" pos="127.94"/>
        <detEntry lane="108828_0" pos="71.42"/>
        <detEntry lane="108828_1" pos="71.42"/>
        <detExit lane="108713_0" pos="-.1"/>
        <detExit lane="108713_1" pos="-.1"/>
    </e3Detector>
    <e3Detector id="e3_13447982_-108713" freq="5" file="outputs/e3output.xml">
        <detEntry lane="-108713_0" pos="0.20"/>
        <detEntry lane="-108713_1" pos="0.20"/>
        <detExit lane="-108713_0" pos="-.1"/>
        <detExit lane="-108713_1" pos="-.1"/>
    </e3Detector>
    <e3Detector id="e3_13447982_-108714" freq="5" file="outputs/e3output.xml">
        <detEntry lane="-108583_0" pos="162.38"/>
        <detEntry lane="-108583_1" pos="162.38"/>
        <detExit lane="-108714_0" pos="-.1"/>
        <detExit lane="-108714_1" pos="-.1"/>
    </e3Detector>
    <e3Detector id="e3_13447982_108828" freq="5" file="outputs/e3output.xml">
        <detEntry lane="-108840_0" pos="257.01"/>
        <detEntry lane="-108840_1" pos="257.01"/>
        <detEntry lane="-108867_0" pos="257.11"/>
        <detEntry lane="-108867_1" pos="257.11"/>
        <detEntry lane="108973_0" pos="57.52"/>
        <detEntry lane="108973_1" pos="57.52"/>
        <detExit lane="108828_0" pos="-.1"/>
        <detExit lane="108828_1" pos="-.1"/>
    </e3Detector>
    <e3Detector id="e3_13448001_-108726" freq="5" file="outputs/e3output.xml">
        <detEntry lane="-108555_0" pos="30.46"/>
        <detEntry lane="-108555_1" pos="30.46"/>
        <detEntry lane="108686_0" pos="143.49"/>
        <detEntry lane="108686_1" pos="143.49"/>
        <detExit lane="-108726_0" pos="-.1"/>
        <detExit lane="-108726_1" pos="-.1"/>
    </e3Detector>
    <e3Detector id="e3_13448001_-108735" freq="5" file="outputs/e3output.xml">
        <detEntry lane="-108685_0" pos="20.79"/>
        <detEntry lane="-108685_1" pos="20.79"/>
        <detEntry lane="-108686_0" pos="127.62"/>
        <detEntry lane="-108686_1" pos="127.62"/>
        <detEntry lane="-5101676_0" pos="0.20"/>
        <detEntry lane="-5101676_1" pos="0.20"/>
        <detEntry lane="108877_0" pos="151.45"/>
        <detEntry lane="108877_1" pos="151.45"/>
        <detExit lane="-108735_0" pos="-.1"/>
        <detExit lane="-108735_1" pos="-.1"/>
    </e3Detector>
    <e3Detector id="e3_13448001_30001427" freq="5" file="outputs/e3output.xml">
        <detEntry lane="30001426_0" pos="0.20"/>
        <detEntry lane="30001426_1" pos="0.20"/>
        <detExit lane="30001427_0" pos="-.1"/>
        <detExit lane="30001427_1" pos="-.1"/>
    </e3Detector>
    <e3Detector id="e3_13448001_30029963" freq="5" file="outputs/e3output.xml">
        <detEntry lane="30029962_0" pos="45.63"/>
        <detEntry lane="30029962_1" pos="45.63"/>
        <detExit lane="30029963_0" pos="-.1"/>
        <detExit lane="30029963_1" pos="-.1"/>
    </e3Detector>
    <e3Detector id="e3_13448004_-108728" freq="5" file="outputs/e3output.xml">
        <detEntry lane="-108685_0" pos="0.20"/>
        <detEntry lane="-108685_1" pos="0.20"/>
        <detEntry lane="-108686_0" pos="45.56"/>
        <detEntry lane="-108686_1" pos="45.56"/>
        <detEntry lane="108877_0" pos="69.39"/>
        <detEntry lane="108877_1" pos="69.39"/>
        <detExit lane="-108728_0" pos="-.1"/>
        <detExit lane="-108728_1" pos="-.1"/>
    </e3Detector>
    <e3Detector id="e3_13448004_-5101676" freq="5" file="outputs/e3output.xml">
        <detEntry lane="-5101676_0" pos="0.20"/>
        <detEntry lane="-5101676_1" pos="0.20"/>
        <detExit lane="-5101676_0" pos="-.1"/>
        <detExit lane="-5101676_1" pos="-.1"/>
    </e3Detector>
    <e3Detector id="e3_13448004_108735" freq="5" file="outputs/e3output.xml">
        <detEntry lane="-108726_0" pos="15.20"/>
        <detEntry lane="-108726_1" pos="15.20"/>
        <detEntry lane="30001426_0" pos="0.20"/>
        <detEntry lane="30001426_1" pos="0.20"/>
        <detEntry lane="30029962_0" pos="127.69"/>
        <detEntry lane="30029962_1" pos="127.69"/>
        <detExit lane="108735_0" pos="-.1"/>
        <detExit lane="108735_1" pos="-.1"/>
    </e3Detector>
    <e3Detector id="e3_13447877_108736" freq="5" file="outputs/e3output.xml">
        <detEntry lane="-108772_0" pos="127.47"/>
        <detEntry lane="-108772_1" pos="127.47"/>
        <detEntry lane="108851_0" pos="50.47"/>
        <detEntry lane="108851_1" pos="50.47"/>
        <detExit lane="108736_0" pos="-.1"/>
        <detExit lane="108736_1" pos="-.1"/>
    </e3Detector>
    <e3Detector id="e3_13448015_-108736" freq="5" file="outputs/e3output.xml">
        <detEntry lane="-108736_0" pos="0.20"/>
        <detEntry lane="-108736_1" pos="0.20"/>
        <detExit lane="-108736_0" pos="-.1"/>
        <detExit lane="-108736_1" pos="-.1"/>
    </e3Detector>
    <e3Detector id="e3_13448015_-108772" freq="5" file="outputs/e3output.xml">
        <detEntry lane="-108772_0" pos="25.98"/>
        <detEntry lane="-108772_1" pos="25.98"/>
        <detExit lane="-108772_0" pos="-.1"/>
        <detExit lane="-108772_1" pos="-.1"/>
    </e3Detector>
    <e3Detector id="e3_13448015_108851" freq="5" file="outputs/e3output.xml">
        <detEntry lane="-108850_0" pos="186.30"/>
        <detEntry lane="-108850_1" pos="186.30"/>
        <detEntry lane="109021_0" pos="282.97"/>
        <detEntry lane="109021_1" pos="282.97"/>
        <detExit lane="108851_0" pos="-.1"/>
        <detExit lane="108851_1" pos="-.1"/>
    </e3Detector>
    <e3Detector id="e3_13447856_108772" freq="5" file="outputs/e3output.xml">
        <detEntry lane="108772_0" pos="25.98"/>
        <detEntry lane="108772_1" pos="25.98"/>