<additional xmlns:xsi="http://www.w3.org/2001/XMLSchema-instance" xsi:noNamespaceSchemaLocation="http://sumo.dlr.de/xsd/additional_file.xsd">
    <laneAreaDetector file="data/simulation_output/bendale-glen_andrew/e2output.xml" freq="5" friendlyPos="x" id="e2det_-108321_0" lane="-108321_0" length="82.78" pos="0"/>
    <laneAreaDetector file="data/simulation_output/bendale-glen_andrew/e2output.xml" freq="5" friendlyPos="x" id="e2det_-108321_1" lane="-108321_1" length="82.78" pos="0"/>
    <laneAreaDetector file="data/simulation_output/bendale-glen_andrew/e2output.xml" freq="5" friendlyPos="x" id="e2det_30030000_0" lane="30030000_0" length="181.02" pos="0"/>
    <laneAreaDetector file="data/simulation_output/bendale-glen_andrew/e2output.xml" freq="5" friendlyPos="x" id="e2det_30030000_1" lane="30030000_1" length="181.02" pos="0"/>
    <laneAreaDetector file="data/simulation_output/bendale-glen_andrew/e2output.xml" freq="5" friendlyPos="x" id="e2det_9638455_0" lane="9638455_0" length="250" pos="111.14000000000001"/>
    <laneAreaDetector file="data/simulation_output/bendale-glen_andrew/e2output.xml" freq="5" friendlyPos="x" id="e2det_9638455_1" lane="9638455_1" length="250" pos="111.14000000000001"/>
    <laneAreaDetector file="data/simulation_output/bendale-glen_andrew/e2output.xml" freq="5" friendlyPos="x" id="e2det_9638455_2" lane="9638455_2" length="250" pos="111.14000000000001"/>
    <laneAreaDetector file="data/simulation_output/bendale-glen_andrew/e2output.xml" freq="5" friendlyPos="x" id="e2det_-108949_0" lane="-108949_0" length="201.65" pos="0"/>
    <laneAreaDetector file="data/simulation_output/bendale-glen_andrew/e2output.xml" freq="5" friendlyPos="x" id="e2det_-108949_1" lane="-108949_1" length="201.65" pos="0"/>
    <laneAreaDetector file="data/simulation_output/bendale-glen_andrew/e2output.xml" freq="5" friendlyPos="x" id="e2det_-2146326_0" lane="-2146326_0" length="206.3" pos="0"/>
    <laneAreaDetector file="data/simulation_output/bendale-glen_andrew/e2output.xml" freq="5" friendlyPos="x" id="e2det_-2146326_1" lane="-2146326_1" length="206.3" pos="0"/>
    <laneAreaDetector file="data/simulation_output/bendale-glen_andrew/e2output.xml" freq="5" friendlyPos="x" id="e2det_30029993_0" lane="30029993_0" length="92.65" pos="0"/>
    <laneAreaDetector file="data/simulation_output/bendale-glen_andrew/e2output.xml" freq="5" friendlyPos="x" id="e2det_30029993_1" lane="30029993_1" length="92.65" pos="0"/>
    <laneAreaDetector file="data/simulation_output/bendale-glen_andrew/e2output.xml" freq="5" friendlyPos="x" id="e2det_30029993_2" lane="30029993_2" length="92.65" pos="0"/>
    <laneAreaDetector file="data/simulation_output/bendale-glen_andrew/e2output.xml" freq="5" friendlyPos="x" id="e2det_-20146485_0" lane="-20146485_0" length="250" pos="7.65"/>
    <laneAreaDetector file="data/simulation_output/bendale-glen_andrew/e2output.xml" freq="5" friendlyPos="x" id="e2det_-20146485_1" lane="-20146485_1" length="250" pos="7.65"/>
    <laneAreaDetector file="data/simulation_output/bendale-glen_andrew/e2output.xml" freq="5" friendlyPos="x" id="e2det_20146476_0" lane="20146476_0" length="250" pos="95.72999999999999"/>
    <laneAreaDetector file="data/simulation_output/bendale-glen_andrew/e2output.xml" freq="5" friendlyPos="x" id="e2det_20146476_1" lane="20146476_1" length="250" pos="95.72999999999999"/>
    <laneAreaDetector file="data/simulation_output/bendale-glen_andrew/e2output.xml" freq="5" friendlyPos="x" id="e2det_-30020723_0" lane="-30020723_0" length="79.01" pos="0"/>
    <laneAreaDetector file="data/simulation_output/bendale-glen_andrew/e2output.xml" freq="5" friendlyPos="x" id="e2det_109716_0" lane="109716_0" length="107.51" pos="0"/>
    <laneAreaDetector file="data/simulation_output/bendale-glen_andrew/e2output.xml" freq="5" friendlyPos="x" id="e2det_109716_1" lane="109716_1" length="107.51" pos="0"/>
    <laneAreaDetector file="data/simulation_output/bendale-glen_andrew/e2output.xml" freq="5" friendlyPos="x" id="e2det_109716_2" lane="109716_2" length="107.51" pos="0"/>
    <laneAreaDetector file="data/simulation_output/bendale-glen_andrew/e2output.xml" freq="5" friendlyPos="x" id="e2det_20035249_0" lane="20035249_0" length="68.93" pos="0"/>
    <laneAreaDetector file="data/simulation_output/bendale-glen_andrew/e2output.xml" freq="5" friendlyPos="x" id="e2det_20035249_1" lane="20035249_1" length="68.93" pos="0"/>
    <laneAreaDetector file="data/simulation_output/bendale-glen_andrew/e2output.xml" freq="5" friendlyPos="x" id="e2det_20035249_2" lane="20035249_2" length="68.93" pos="0"/>
    <laneAreaDetector file="data/simulation_output/bendale-glen_andrew/e2output.xml" freq="5" friendlyPos="x" id="e2det_30020724_0" lane="30020724_0" length="162.72" pos="0"/>
    <laneAreaDetector file="data/simulation_output/bendale-glen_andrew/e2output.xml" freq="5" friendlyPos="x" id="e2det_107193_0" lane="107193_0" length="55.33" pos="1.4155343563970746e-15"/>
    <laneAreaDetector file="data/simulation_output/bendale-glen_andrew/e2output.xml" freq="5" friendlyPos="x" id="e2det_107193_1" lane="107193_1" length="55.33" pos="1.4155343563970746e-15"/>
    <laneAreaDetector file="data/simulation_output/bendale-glen_andrew/e2output.xml" freq="5" friendlyPos="x" id="e2det_107193_2" lane="107193_2" length="55.33" pos="1.4155343563970746e-15"/>
    <laneAreaDetector file="data/simulation_output/bendale-glen_andrew/e2output.xml" freq="5" friendlyPos="x" id="e2det_107262_0" lane="107262_0" length="250" pos="68.76000000000002"/>
    <laneAreaDetector file="data/simulation_output/bendale-glen_andrew/e2output.xml" freq="5" friendlyPos="x" id="e2det_107262_1" lane="107262_1" length="250" pos="68.76000000000002"/>
    <laneAreaDetector file="data/simulation_output/bendale-glen_andrew/e2output.xml" freq="5" friendlyPos="x" id="e2det_107427_0" lane="107427_0" length="229.4" pos="0"/>
    <laneAreaDetector file="data/simulation_output/bendale-glen_andrew/e2output.xml" freq="5" friendlyPos="x" id="e2det_107427_1" lane="107427_1" length="229.4" pos="0"/>
    <laneAreaDetector file="data/simulation_output/bendale-glen_andrew/e2output.xml" freq="5" friendlyPos="x" id="e2det_107543_0" lane="107543_0" length="250" pos="153.27"/>
    <laneAreaDetector file="data/simulation_output/bendale-glen_andrew/e2output.xml" freq="5" friendlyPos="x" id="e2det_107543_1" lane="107543_1" length="250" pos="153.27"/>
    <laneAreaDetector file="data/simulation_output/bendale-glen_andrew/e2output.xml" freq="5" friendlyPos="x" id="e2det_107587_0" lane="107587_0" length="108.11" pos="0"/>
    <laneAreaDetector file="data/simulation_output/bendale-glen_andrew/e2output.xml" freq="5" friendlyPos="x" id="e2det_107613_0" lane="107613_0" length="56.03" pos="1.4155343563970746e-15"/>
    <laneAreaDetector file="data/simulation_output/bendale-glen_andrew/e2output.xml" freq="5" friendlyPos="x" id="e2det_107613_1" lane="107613_1" length="56.03" pos="1.4155343563970746e-15"/>
    <laneAreaDetector file="data/simulation_output/bendale-glen_andrew/e2output.xml" freq="5" friendlyPos="x" id="e2det_107613_2" lane="107613_2" length="56.03" pos="1.4155343563970746e-15"/>
    <laneAreaDetector file="data/simulation_output/bendale-glen_andrew/e2output.xml" freq="5" friendlyPos="x" id="e2det_107766_0" lane="107766_0" length="220.3" pos="0"/>
    <laneAreaDetector file="data/simulation_output/bendale-glen_andrew/e2output.xml" freq="5" friendlyPos="x" id="e2det_107766_1" lane="107766_1" length="220.3" pos="0"/>
    <laneAreaDetector file="data/simulation_output/bendale-glen_andrew/e2output.xml" freq="5" friendlyPos="x" id="e2det_107766_2" lane="107766_2" length="220.3" pos="0"/>
    <laneAreaDetector file="data/simulation_output/bendale-glen_andrew/e2output.xml" freq="5" friendlyPos="x" id="e2det_20146477_0" lane="20146477_0" length="237.41" pos="0"/>
    <laneAreaDetector file="data/simulation_output/bendale-glen_andrew/e2output.xml" freq="5" friendlyPos="x" id="e2det_20146477_1" lane="20146477_1" length="237.41" pos="0"/>
    <laneAreaDetector file="data/simulation_output/bendale-glen_andrew/e2output.xml" freq="5" friendlyPos="x" id="e2det_107795_0" lane="107795_0" length="37.54" pos="1.4155343563970746e-15"/>
    <laneAreaDetector file="data/simulation_output/bendale-glen_andrew/e2output.xml" freq="5" friendlyPos="x" id="e2det_107795_1" lane="107795_1" length="37.54" pos="1.4155343563970746e-15"/>
    <laneAreaDetector file="data/simulation_output/bendale-glen_andrew/e2output.xml" freq="5" friendlyPos="x" id="e2det_107795_2" lane="107795_2" length="37.54" pos="1.4155343563970746e-15"/>
    <laneAreaDetector file="data/simulation_output/bendale-glen_andrew/e2output.xml" freq="5" friendlyPos="x" id="e2det_107897_0" lane="107897_0" length="250" pos="27.46999999999999"/>
    <laneAreaDetector file="data/simulation_output/bendale-glen_andrew/e2output.xml" freq="5" friendlyPos="x" id="e2det_107897_1" lane="107897_1" length="250" pos="27.46999999999999"/>
    <laneAreaDetector file="data/simulation_output/bendale-glen_andrew/e2output.xml" freq="5" friendlyPos="x" id="e2det_107897_2" lane="107897_2" length="250" pos="27.46999999999999"/>
    <laneAreaDetector file="data/simulation_output/bendale-glen_andrew/e2output.xml" freq="5" friendlyPos="x" id="e2det_107941_0" lane="107941_0" length="180.83" pos="0"/>
    <laneAreaDetector file="data/simulation_output/bendale-glen_andrew/e2output.xml" freq="5" friendlyPos="x" id="e2det_107941_1" lane="107941_1" length="180.83" pos="0"/>
    <laneAreaDetector file="data/simulation_output/bendale-glen_andrew/e2output.xml" freq="5" friendlyPos="x" id="e2det_107941_2" lane="107941_2" length="180.83" pos="0"/>
    <laneAreaDetector file="data/simulation_output/bendale-glen_andrew/e2output.xml" freq="5" friendlyPos="x" id="e2det_20050652_0" lane="20050652_0" length="224.47" pos="0"/>
    <laneAreaDetector file="data/simulation_output/bendale-glen_andrew/e2output.xml" freq="5" friendlyPos="x" id="e2det_20050652_1" lane="20050652_1" length="224.47" pos="0"/>
    <laneAreaDetector file="data/simulation_output/bendale-glen_andrew/e2output.xml" freq="5" friendlyPos="x" id="e2det_20050652_2" lane="20050652_2" length="224.47" pos="0"/>
    <laneAreaDetector file="data/simulation_output/bendale-glen_andrew/e2output.xml" freq="5" friendlyPos="x" id="e2det_108009_0" lane="108009_0" length="250" pos="100.88000000000002"/>
    <laneAreaDetector file="data/simulation_output/bendale-glen_andrew/e2output.xml" freq="5" friendlyPos="x" id="e2det_108009_1" lane="108009_1" length="250" pos="100.88000000000002"/>
    <laneAreaDetector file="data/simulation_output/bendale-glen_andrew/e2output.xml" freq="5" friendlyPos="x" id="e2det_7204482_0" lane="7204482_0" length="191.64000000000001" pos="0"/>
    <laneAreaDetector file="data/simulation_output/bendale-glen_andrew/e2output.xml" freq="5" friendlyPos="x" id="e2det_7204482_1" lane="7204482_1" length="191.64000000000001" pos="0"/>
    <laneAreaDetector file="data/simulation_output/bendale-glen_andrew/e2output.xml" freq="5" friendlyPos="x" id="e2det_7204482_2" lane="7204482_2" length="191.64000000000001" pos="0"/>
    <laneAreaDetector file="data/simulation_output/bendale-glen_andrew/e2output.xml" freq="5" friendlyPos="x" id="e2det_108027_0" lane="108027_0" length="187.56" pos="0"/>
    <laneAreaDetector file="data/simulation_output/bendale-glen_andrew/e2output.xml" freq="5" friendlyPos="x" id="e2det_108027_1" lane="108027_1" length="187.56" pos="0"/>
    <laneAreaDetector file="data/simulation_output/bendale-glen_andrew/e2output.xml" freq="5" friendlyPos="x" id="e2det_108027_2" lane="108027_2" length="187.56" pos="0"/>
    <laneAreaDetector file="data/simulation_output/bendale-glen_andrew/e2output.xml" freq="5" friendlyPos="x" id="e2det_108322_0" lane="108322_0" length="198.68" pos="0"/>
    <laneAreaDetector file="data/simulation_output/bendale-glen_andrew/e2output.xml" freq="5" friendlyPos="x" id="e2det_108322_1" lane="108322_1" length="198.68" pos="0"/>
    <laneAreaDetector file="data/simulation_output/bendale-glen_andrew/e2output.xml" freq="5" friendlyPos="x" id="e2det_108322_2" lane="108322_2" length="198.68" pos="0"/>
    <laneAreaDetector file="data/simulation_output/bendale-glen_andrew/e2output.xml" freq="5" friendlyPos="x" id="e2det_6786837_0" lane="6786837_0" length="221.27" pos="0"/>
    <laneAreaDetector file="data/simulation_output/bendale-glen_andrew/e2output.xml" freq="5" friendlyPos="x" id="e2det_6786837_1" lane="6786837_1" length="221.27" pos="0"/>
    <laneAreaDetector file="data/simulation_output/bendale-glen_andrew/e2output.xml" freq="5" friendlyPos="x" id="e2det_6786837_2" lane="6786837_2" length="221.27" pos="0"/>
    <laneAreaDetector file="data/simulation_output/bendale-glen_andrew/e2output.xml" freq="5" friendlyPos="x" id="e2det_108327_0" lane="108327_0" length="194.01000000000002" pos="0"/>
    <laneAreaDetector file="data/simulation_output/bendale-glen_andrew/e2output.xml" freq="5" friendlyPos="x" id="e2det_108327_1" lane="108327_1" length="194.01000000000002" pos="0"/>
    <laneAreaDetector file="data/simulation_output/bendale-glen_andrew/e2output.xml" freq="5" friendlyPos="x" id="e2det_108327_2" lane="108327_2" length="194.01000000000002" pos="0"/>
    <laneAreaDetector file="data/simulation_output/bendale-glen_andrew/e2output.xml" freq="5" friendlyPos="x" id="e2det_108429_0" lane="108429_0" length="143.46" pos="0"/>
    <laneAreaDetector file="data/simulation_output/bendale-glen_andrew/e2output.xml" freq="5" friendlyPos="x" id="e2det_108429_1" lane="108429_1" length="143.46" pos="0"/>
    <laneAreaDetector file="data/simulation_output/bendale-glen_andrew/e2output.xml" freq="5" friendlyPos="x" id="e2det_108429_2" lane="108429_2" length="143.46" pos="0"/>
    <laneAreaDetector file="data/simulation_output/bendale-glen_andrew/e2output.xml" freq="5" friendlyPos="x" id="e2det_108537_0" lane="108537_0" length="157.20000000000002" pos="0"/>
    <laneAreaDetector file="data/simulation_output/bendale-glen_andrew/e2output.xml" freq="5" friendlyPos="x" id="e2det_108537_1" lane="108537_1" length="157.20000000000002" pos="0"/>
    <laneAreaDetector file="data/simulation_output/bendale-glen_andrew/e2output.xml" freq="5" friendlyPos="x" id="e2det_108537_2" lane="108537_2" length="157.20000000000002" pos="0"/>
    <laneAreaDetector file="data/simulation_output/bendale-glen_andrew/e2output.xml" freq="5" friendlyPos="x" id="e2det_108685_0" lane="108685_0" length="103.42" pos="0"/>
    <laneAreaDetector file="data/simulation_output/bendale-glen_andrew/e2output.xml" freq="5" friendlyPos="x" id="e2det_108685_1" lane="108685_1" length="103.42" pos="0"/>
    <laneAreaDetector file="data/simulation_output/bendale-glen_andrew/e2output.xml" freq="5" friendlyPos="x" id="e2det_30075799_0" lane="30075799_0" length="250" pos="106.20000000000002"/>
    <laneAreaDetector file="data/simulation_output/bendale-glen_andrew/e2output.xml" freq="5" friendlyPos="x" id="e2det_30075799_1" lane="30075799_1" length="250" pos="106.20000000000002"/>
    <laneAreaDetector file="data/simulation_output/bendale-glen_andrew/e2output.xml" freq="5" friendlyPos="x" id="e2det_30075799_2" lane="30075799_2" length="250" pos="106.20000000000002"/>
    <laneAreaDetector file="data/simulation_output/bendale-glen_andrew/e2output.xml" freq="5" friendlyPos="x" id="e2det_108797_0" lane="108797_0" length="224.38" pos="0"/>
    <laneAreaDetector file="data/simulation_output/bendale-glen_andrew/e2output.xml" freq="5" friendlyPos="x" id="e2det_108797_1" lane="108797_1" length="224.38" pos="0"/>
    <laneAreaDetector file="data/simulation_output/bendale-glen_andrew/e2output.xml" freq="5" friendlyPos="x" id="e2det_108797_2" lane="108797_2" length="224.38" pos="0"/>
    <laneAreaDetector file="data/simulation_output/bendale-glen_andrew/e2output.xml" freq="5" friendlyPos="x" id="e2det_108915_0" lane="108915_0" length="250" pos="131.29999999999998"/>
    <laneAreaDetector file="data/simulation_output/bendale-glen_andrew/e2output.xml" freq="5" friendlyPos="x" id="e2det_108915_1" lane="108915_1" length="250" pos="131.29999999999998"/>
    <laneAreaDetector file="data/simulation_output/bendale-glen_andrew/e2output.xml" freq="5" friendlyPos="x" id="e2det_108915_2" lane="108915_2" length="250" pos="131.29999999999998"/>
    <laneAreaDetector file="data/simulation_output/bendale-glen_andrew/e2output.xml" freq="5" friendlyPos="x" id="e2det_109176_0" lane="109176_0" length="52.99" pos="1.4155343563970746e-15"/>
    <laneAreaDetector file="data/simulation_output/bendale-glen_andrew/e2output.xml" freq="5" friendlyPos="x" id="e2det_109176_1" lane="109176_1" length="52.99" pos="1.4155343563970746e-15"/>
    <laneAreaDetector file="data/simulation_output/bendale-glen_andrew/e2output.xml" freq="5" friendlyPos="x" id="e2det_109176_2" lane="109176_2" length="52.99" pos="1.4155343563970746e-15"/>
    <laneAreaDetector file="data/simulation_output/bendale-glen_andrew/e2output.xml" freq="5" friendlyPos="x" id="e2det_30020570_0" lane="30020570_0" length="14.280000000000001" pos="0"/>
    <laneAreaDetector file="data/simulation_output/bendale-glen_andrew/e2output.xml" freq="5" friendlyPos="x" id="e2det_30020570_1" lane="30020570_1" length="14.280000000000001" pos="0"/>
    <laneAreaDetector file="data/simulation_output/bendale-glen_andrew/e2output.xml" freq="5" friendlyPos="x" id="e2det_109628_0" lane="109628_0" length="149.71" pos="0"/>
    <laneAreaDetector file="data/simulation_output/bendale-glen_andrew/e2output.xml" freq="5" friendlyPos="x" id="e2det_109628_1" lane="109628_1" length="149.71" pos="0"/>
    <laneAreaDetector file="data/simulation_output/bendale-glen_andrew/e2output.xml" freq="5" friendlyPos="x" id="e2det_11485062_0" lane="11485062_0" length="250" pos="99.02000000000001"/>
    <laneAreaDetector file="data/simulation_output/bendale-glen_andrew/e2output.xml" freq="5" friendlyPos="x" id="e2det_11485062_1" lane="11485062_1" length="250" pos="99.02000000000001"/>
    <laneAreaDetector file="data/simulation_output/bendale-glen_andrew/e2output.xml" freq="5" friendlyPos="x" id="e2det_11485062_2" lane="11485062_2" length="250" pos="99.02000000000001"/>
    <laneAreaDetector file="data/simulation_output/bendale-glen_andrew/e2output.xml" freq="5" friendlyPos="x" id="e2det_109685_0" lane="109685_0" length="250" pos="67.71000000000001"/>
    <laneAreaDetector file="data/simulation_output/bendale-glen_andrew/e2output.xml" freq="5" friendlyPos="x" id="e2det_109685_1" lane="109685_1" length="250" pos="67.71000000000001"/>
    <laneAreaDetector file="data/simulation_output/bendale-glen_andrew/e2output.xml" freq="5" friendlyPos="x" id="e2det_109685_2" lane="109685_2" length="250" pos="67.71000000000001"/>
    <laneAreaDetector file="data/simulation_output/bendale-glen_andrew/e2output.xml" freq="5" friendlyPos="x" id="e2det_110000_0" lane="110000_0" length="208.65" pos="0"/>
    <laneAreaDetector file="data/simulation_output/bendale-glen_andrew/e2output.xml" freq="5" friendlyPos="x" id="e2det_110000_1" lane="110000_1" length="208.65" pos="0"/>
    <laneAreaDetector file="data/simulation_output/bendale-glen_andrew/e2output.xml" freq="5" friendlyPos="x" id="e2det_110000_2" lane="110000_2" length="208.65" pos="0"/>
    <laneAreaDetector file="data/simulation_output/bendale-glen_andrew/e2output.xml" freq="5" friendlyPos="x" id="e2det_13232758_0" lane="13232758_0" length="132.95000000000002" pos="0"/>
    <laneAreaDetector file="data/simulation_output/bendale-glen_andrew/e2output.xml" freq="5" friendlyPos="x" id="e2det_13232758_1" lane="13232758_1" length="132.95000000000002" pos="0"/>
    <laneAreaDetector file="data/simulation_output/bendale-glen_andrew/e2output.xml" freq="5" friendlyPos="x" id="e2det_13232758_2" lane="13232758_2" length="132.95000000000002" pos="0"/>
    <laneAreaDetector file="data/simulation_output/bendale-glen_andrew/e2output.xml" freq="5" friendlyPos="x" id="e2det_30039278_0" lane="30039278_0" length="148.53" pos="0"/>
    <laneAreaDetector file="data/simulation_output/bendale-glen_andrew/e2output.xml" freq="5" friendlyPos="x" id="e2det_30039278_1" lane="30039278_1" length="148.53" pos="0"/>
    <laneAreaDetector file="data/simulation_output/bendale-glen_andrew/e2output.xml" freq="5" friendlyPos="x" id="e2det_30039278_2" lane="30039278_2" length="148.53" pos="0"/>
    <laneAreaDetector file="data/simulation_output/bendale-glen_andrew/e2output.xml" freq="5" friendlyPos="x" id="e2det_30122712_0" lane="30122712_0" length="131.56" pos="0"/>
    <laneAreaDetector file="data/simulation_output/bendale-glen_andrew/e2output.xml" freq="5" friendlyPos="x" id="e2det_30122712_1" lane="30122712_1" length="131.56" pos="0"/>
    <laneAreaDetector file="data/simulation_output/bendale-glen_andrew/e2output.xml" freq="5" friendlyPos="x" id="e2det_30122712_2" lane="30122712_2" length="131.56" pos="0"/>
    <laneAreaDetector file="data/simulation_output/bendale-glen_andrew/e2output.xml" freq="5" friendlyPos="x" id="e2det_3648609_0" lane="3648609_0" length="160.68" pos="0"/>
    <laneAreaDetector file="data/simulation_output/bendale-glen_andrew/e2output.xml" freq="5" friendlyPos="x" id="e2det_3648609_1" lane="3648609_1" length="160.68" pos="0"/>
    <laneAreaDetector file="data/simulation_output/bendale-glen_andrew/e2output.xml" freq="5" friendlyPos="x" id="e2det_3648609_2" lane="3648609_2" length="160.68" pos="0"/>
    <laneAreaDetector file="data/simulation_output/bendale-glen_andrew/e2output.xml" freq="5" friendlyPos="x" id="e2det_4666869_0" lane="4666869_0" length="250" pos="9.830000000000007"/>
    <laneAreaDetector file="data/simulation_output/bendale-glen_andrew/e2output.xml" freq="5" friendlyPos="x" id="e2det_4666869_1" lane="4666869_1" length="250" pos="9.830000000000007"/>
    <laneAreaDetector file="data/simulation_output/bendale-glen_andrew/e2output.xml" freq="5" friendlyPos="x" id="e2det_4666869_2" lane="4666869_2" length="250" pos="9.830000000000007"/>
    <laneAreaDetector file="data/simulation_output/bendale-glen_andrew/e2output.xml" freq="5" friendlyPos="x" id="e2det_7155256_0" lane="7155256_0" length="217.26000000000002" pos="0"/>
    <laneAreaDetector file="data/simulation_output/bendale-glen_andrew/e2output.xml" freq="5" friendlyPos="x" id="e2det_7155256_1" lane="7155256_1" length="217.26000000000002" pos="0"/>
    <laneAreaDetector file="data/simulation_output/bendale-glen_andrew/e2output.xml" freq="5" friendlyPos="x" id="e2det_7155256_2" lane="7155256_2" length="217.26000000000002" pos="0"/>
    <laneAreaDetector file="data/simulation_output/bendale-glen_andrew/e2output.xml" freq="5" friendlyPos="x" id="e2det_9011650_0" lane="9011650_0" length="230.16" pos="0"/>
    <laneAreaDetector file="data/simulation_output/bendale-glen_andrew/e2output.xml" freq="5" friendlyPos="x" id="e2det_9011650_1" lane="9011650_1" length="230.16" pos="0"/>
    <laneAreaDetector file="data/simulation_output/bendale-glen_andrew/e2output.xml" freq="5" friendlyPos="x" id="e2det_9011650_2" lane="9011650_2" length="230.16" pos="0"/>
    <laneAreaDetector file="data/simulation_output/bendale-glen_andrew/e2output.xml" freq="5" friendlyPos="x" id="e2det_9638451_0" lane="9638451_0" length="112.06" pos="0"/>
    <laneAreaDetector file="data/simulation_output/bendale-glen_andrew/e2output.xml" freq="5" friendlyPos="x" id="e2det_9638451_1" lane="9638451_1" length="112.06" pos="0"/>
    <laneAreaDetector file="data/simulation_output/bendale-glen_andrew/e2output.xml" freq="5" friendlyPos="x" id="e2det_9638451_2" lane="9638451_2" length="112.06" pos="0"/>
    <laneAreaDetector file="data/simulation_output/bendale-glen_andrew/e2output.xml" freq="5" friendlyPos="x" id="e2det_9910076_0" lane="9910076_0" length="236.58" pos="0"/>
    <laneAreaDetector file="data/simulation_output/bendale-glen_andrew/e2output.xml" freq="5" friendlyPos="x" id="e2det_9910076_1" lane="9910076_1" length="236.58" pos="0"/>
    <laneAreaDetector file="data/simulation_output/bendale-glen_andrew/e2output.xml" freq="5" friendlyPos="x" id="e2det_9910076_2" lane="9910076_2" length="236.58" pos="0"/>
</additional>
