<?xml version="1.0" encoding="UTF-8"?>

<!-- generated on 2024-09-01 13:32:28.427423 by routeSampler.py UNKNOWN
<configuration>
    <route-files value="data/processed/dorset_park/initial_route_file.rou.xml"/>
    <turn-files value="data/processed/dorset_park/turning_movements.xml"/>
    <output-file value="data/sumo_networks/dorset_park/dorset_park_routes.rou.xml"/>
    <begin value="28800"/>
    <end value="34200"/>
    <total-count value="6688"/>
</configuration>
-->

<routes xmlns:xsi="http://www.w3.org/2001/XMLSchema-instance" xsi:noNamespaceSchemaLocation="http://sumo.dlr.de/xsd/routes_file.xsd">
<!-- begin="28800.0" end="29700.0" -->
    <vehicle id="28800_0" depart="28800.17">
        <route edges="-107689 -107784 -14228399 -14228398 -107978 -11034280 2798981"/>
    </vehicle>
    <vehicle id="28800_1" depart="28801.69">
        <route edges="14605415 14605473 14605482 14605475 -109980 -7171791 -110025 110026 7179805 7179817 5066211 3011683 109489 3011699 6436410 6436414 6436415 5066262 2809289 7204415 2798981"/>
    </vehicle>
    <vehicle id="28800_2" depart="28801.89">
        <route edges="-110396 -110426 110427 6408248 7017636 110141 4605094 6436449 110026 7179805 7179817 5066211 3011683 109489 -30123087"/>
    </vehicle>
    <vehicle id="28800_3" depart="28802.09">
        <route edges="14070145 -14070145 -14070200 -14070199 -14070198 -20050929 -20050928 -20050897 20050897"/>
    </vehicle>
    <vehicle id="28800_4" depart="28802.59">
        <route edges="30101514 -30101514 -30101513 -30101498 30101478 -108915 -109360 -9910076 -30122713 -30122712 -109688 -5087274 -13232758 -109896 -109936 109936"/>
    </vehicle>
    <vehicle id="28800_5" depart="28802.63">
        <route edges="-110570 -110613 110614 110496 110444 110427 6408248 7017636 110141 4605094 6436449 110026 7179805 7179817 5066211 3011683 109489 3011699 11714723 -11714690 -109678"/>
    </vehicle>
    <vehicle id="28800_6" depart="28802.85">
        <route edges="-30122712 -109688 -5087274 -13232758 -109896 -109936 -109940 -109944 -7171803 -109980 -7171791 -110025 -110101 -20040334 -20040333 5047774"/>
    </vehicle>
    <vehicle id="28800_7" depart="28803.44">
        <route edges="-30101488 -30101483 -30109384 -30109383 -30109381 -30109380 -30109375 -30109374 14258090 -108432 -108501 -108515 -108519 -108534 -6541761 -108580 -108622 -5066262 -109093 -109113 -109319 -109363 -109390 -109426 -109427 109427"/>
    </vehicle>
    <vehicle id="28800_8" depart="28805.10">
        <route edges="107853 -107679 -107689 -107784 -14228399 -14228398 -107978 -11034280 -7204415 -2809289 -30013725 -108738 -14663886 -13974855 -6535415 -4684710 -108988 -4684714 -4684711 -12691191 -109276 -109295 -5353633 -109545"/>
    </vehicle>
    <vehicle id="28800_9" depart="28805.48">
        <route edges="5353633 -7171584 109315 109375 109427 109455 109510 109550 109577 109576 -7179817 -7179805 -110026 110025 7171791 109980 7171803 109944 109940 109936 109896 13232758 -110000"/>
    </vehicle>
    <vehicle id="28800_10" depart="28806.04">
        <route edges="107891 -107689 -107784 -14228399 -14228398 -107978 -11034280 -7204415 -2809289 108622 -108622 2809289"/>
    </vehicle>
    <vehicle id="28800_11" depart="28806.33">
        <route edges="109489 -109489 -3011683 -5066211 -7179817 -7179805 -110026 -6436449 -4605094 -110141 -7017636 -6408248 -110427 -110444 -110496 110495"/>
    </vehicle>
    <vehicle id="28800_12" depart="28811.08">
        <route edges="110386 -110396 110395 14668247 4605077 20040316 20040317 -110339 110338 110296 14605392 14605414 14605415 14605473"/>
    </vehicle>
    <vehicle id="28800_13" depart="28811.73">
        <route edges="109610 -109610 -109626 109627 109545 5353633 109295 109276 12691191 -5353610"/>
    </vehicle>
    <vehicle id="28800_14" depart="28812.06">
        <route edges="110110 -110110 -110180 -3497264"/>
    </vehicle>
    <vehicle id="28800_15" depart="28812.77">
        <route edges="107403 107385 -107385 -107403 -107431 -7204470 -108009 -108086 -14020767 -14020766 -9638338 -6332605 11034280"/>
    </vehicle>
    <vehicle id="28800_16" depart="28816.15">
        <route edges="109114 -109011 -30108020 -30108023 -30108022 109188 -109217 -109245 -109307 -109315 -109373 -109387 -109545 -109627 -109836 -5353566 -110180 -3497264"/>
    </vehicle>
    <vehicle id="28800_17" depart="28816.20">
        <route edges="-108501 30083021 30083022 30109374 30109375 30109380 30109381 30109383 30109384 30101483 30101484 30101481 30101478 -108915 -109360 -9910076 -30122713 -30122712 -109688 -5087274 -13232758 -109896 -109936 109937"/>
    </vehicle>
    <vehicle id="28800_18" depart="28819.82">
        <route edges="6427460 6427464 6427468 6427469 -6427469 -6427468 -6427464 -6427460 4605094 6436449 110025 7171791 109980 7171803 109944 109940 109936 109896 13232758 -110000 110021 30100021"/>
    </vehicle>
    <vehicle id="28800_19" depart="28819.83">
        <route edges="107978 14228398 14228399 -14228399 -14228398 -107978 -11034280 6332605 9638338 14020766"/>
    </vehicle>
    <vehicle id="28800_20" depart="28820.64">
        <route edges="108498 108466 108447 108376 -2798981 11034280 107978 14228398 14228399 107784 107689 107679 107671"/>
    </vehicle>
    <vehicle id="28800_21" depart="28822.05">
        <route edges="108498 108466 108447 108376 -2798981 11034280 107978 14228398 14228399 107784 107689 -107689 -107784"/>
    </vehicle>
    <vehicle id="28800_22" depart="28822.63">
        <route edges="-110444 -110496 110496 110444 110427 6408248 7017636 110141 4605094 6436449 110025 7171791 109980 7171803 109944 109940 109936 109896 13232758 -110000"/>
    </vehicle>
    <vehicle id="28800_23" depart="28824.46">
        <route edges="-6427460 -110141 -7017636 -6408248 110180 5353566 109836 109627 109545 5353633 109295 109276 12691191 -5353610"/>
    </vehicle>
    <vehicle id="28800_24" depart="28824.68">
        <route edges="-7155256 -110000 110021 30100021 -30100021 -110021 110000"/>
    </vehicle>
    <vehicle id="28800_25" depart="28826.16">
        <route edges="-2809289 -30013725 -108738 -108820"/>
    </vehicle>
    <vehicle id="28800_26" depart="28826.43">
        <route edges="107978 14228398 -14228405 -20110483 14020767 108086"/>
    </vehicle>
    <vehicle id="28800_27" depart="28826.70">
        <route edges="-108376 -108447 -108466 -108498 -108550 -108561 -108601 -30013726 -108738 -14663886 -13974855 -6535415 -4684710 -108988 -4684714 -4684711 -12691191 -109276 -109295 -5353633 -109545 -109627 -109836 -5353566 -110180 -110427 110427"/>
    </vehicle>
    <vehicle id="28800_28" depart="28827.49">
        <route edges="-7204446 108388"/>
    </vehicle>
    <vehicle id="28800_29" depart="28827.71">
        <route edges="-110021 110000 -13232758 -109896 -109936 -109940 -109944 -7171803 -109980 -7171791 7171791"/>
    </vehicle>
    <vehicle id="28800_30" depart="28827.84">
        <route edges="30109374 30109375 30109380 30109381 30109383 30109384 30101483 30101484 30101481 30101478 -108915 -109360 -9910076 -30122713 -30122712 -109688 -5087274 -13232758 -109896 -109936 109954 109928"/>
    </vehicle>
    <vehicle id="28800_31" depart="28828.00">
        <route edges="5353610 -12691191 -109276 -109295 -5353633"/>
    </vehicle>
    <vehicle id="28800_32" depart="28828.28">
        <route edges="107615 107564 107499 107494 -7204470 -108009 -108086 -14020767 20110483 14228405 -14228398"/>
    </vehicle>
    <vehicle id="28800_33" depart="28829.38">
        <route edges="-109170 109170 109188 -109217 -109245 -109307 -109315 -109373 -109387 -109545 -109627 -109836 -5353566 -110180 -3497264"/>
    </vehicle>
    <vehicle id="28800_34" depart="28830.05">
        <route edges="-6427460 -110141 -7017636 -6408248 110180 5353566 109836 109627 109545 5353633 109295 109276 12691191 4684711 4684714 108988 4684710 6535415 13974855 14070155 30111765 30111766 30111763"/>
    </vehicle>
    <vehicle id="28800_35" depart="28830.30">
        <route edges="-107689 -107784 -14228399 -14228398 -107978 -11034280 -7204415 -2809289 -30013725 -108738 -14663886 -13974855 -6535415 -108899 108899 6535415"/>
    </vehicle>
    <vehicle id="28800_36" depart="28831.02">
        <route edges="-109758 -109782 -109803 -109816 -109835 109836 109627 109545 5353633 109295 109276 12691191 -5353610"/>
    </vehicle>
    <vehicle id="28800_37" depart="28832.34">
        <route edges="-20040334 -20040333 -110297 -110338 110339 -20040317 -20040316 -4605077"/>
    </vehicle>
    <vehicle id="28800_38" depart="28832.66">
        <route edges="-5066211 -7179817 -7179805 -110026 110025 7171791 109980 7171803 109944 109940 109936 109896 13232758 5087274 109688 30122712 30122713 9910076"/>
    </vehicle>
    <vehicle id="28800_39" depart="28834.18">
        <route edges="30109384 -30109384 -30109383 -30109381 -30109380 -30109375 -30109374 14258090 -108432 -108501 -108515 -108519 -108534 -6541761 -108580 -108622 -30013725 -108738 -14663886 -13974855 -6535415 -4684710 -108988 -4684714 -4684711 -5353610"/>
    </vehicle>
    <vehicle id="28800_40" depart="28835.79">
        <route edges="107688 107615 107564 107499 107494 -7204470 -108009 -108086 -14020767 -14020766 -9638338 -6332605 2798981 108350 108293"/>
    </vehicle>
    <vehicle id="28800_41" depart="28836.50">
        <route edges="110191 110083 110000 -13232758 -109896 -109936 -109940 -109944 -7171803 -109980 -7171791 -110025 110026 7179805 7179817 -109576 -109577 -109550 -109510 -109455 -109427 -109375 -109315 7171584"/>
    </vehicle>
    <vehicle id="28800_42" depart="28837.49">
        <route edges="109545 5353633 109295 109276 12691191 4684711 4684714 108988 4684710 6535415 13974855 14070155 14070218 14070219 20050910"/>
    </vehicle>
    <vehicle id="28800_43" depart="28838.06">
        <route edges="-7155256 5087274 109688 -109688"/>
    </vehicle>
    <vehicle id="28800_44" depart="28838.71">
        <route edges="-110443 -110490 -30001036 30001036 110490 110443 14605392 14605393 110101 -6436449 -4605094 -110141 -7017636 -6408248 110180 5353566 109835"/>
    </vehicle>
    <vehicle id="28800_45" depart="28839.75">
        <route edges="110444 110427 110180 5353566 109836 109627 109545 5353633 109295 109276 12691191 4684711 4684714 108988 4684710 -108899"/>
    </vehicle>
    <vehicle id="28800_46" depart="28839.95">
        <route edges="-108146 108146 108095 107935 107890 107802 20105539 20105581 20110472 -14228398 -107978 -11034280 -7204415 -2809289 108622 108580 6541761 108534 108519 108515 30083021 30083022 30109374 30109375 30109380 30109381 30109383 30109384 30101483 30101484 30101481 30101478 -108915 -109360 109359 -109359 109360"/>
    </vehicle>
    <vehicle id="28800_47" depart="28840.11">
        <route edges="-2809289 -5066262 -6436415 -6436414 -6436410 -3011699 -109489 -3011683 -5066211 -7179817 -7179805 -110026 110025 7171791 109980 7171803 109944 109940 109936 109896 13232758 -110000 -110083 -110191 110191 110083"/>
    </vehicle>
    <vehicle id="28800_48" depart="28840.14">
        <route edges="108899 20054774 20054775 -20054775 -20054774"/>
    </vehicle>
    <vehicle id="28800_49" depart="28840.30">
        <route edges="14605393 110101 110025 -110025 -110101"/>
    </vehicle>
    <vehicle id="28800_50" depart="28840.37">
        <route edges="-107784 -14228399 -14228398 -107978 -11034280 -7204415 -2809289 -5066262 -6436415 -6436414 -6436410 -3011699 -109489 -3011683 -5066211 -7179817 -7179805 -110026 -6436449 -4605094 6427460 6427464 6427468 6427469"/>
    </vehicle>
    <vehicle id="28800_51" depart="28841.45">
        <route edges="-30111766 -30111765 -14070155 14663886 108738 30013725 108622 108580 6541761"/>
    </vehicle>
    <vehicle id="28800_52" depart="28841.51">
        <route edges="30101489 30109383 30109384 30101483 30101484 30101481 30101478 -108915 -109360 -9910076 -30122713 -30122712 -109688 -5087274 -13232758 -109896 -109936 -109940 -109944 -7171803 -109980 -7171791 -110025 -110101 -14605393 -14605392 -110296 -110338 110339 -20040317 -20040316 -4605077 -14668247 -110395 110395"/>
    </vehicle>
    <vehicle id="28800_53" depart="28841.85">
        <route edges="-20040316 20040316 20040317 -110339 110338 110296 14605392 14605393 110101 110025 7171791 109980 7171803 109944 109940 109936 109896 13232758 -110000 -110083 -110191 110191 110083"/>
    </vehicle>
    <vehicle id="28800_54" depart="28844.55">
        <route edges="-107689 -107784 -14228399 -14228398 -107978 -11034280 -7204415 -2809289 -30013725 -108738 -14663886 -13974855 -6535415 -108899 108899 6535415"/>
    </vehicle>
    <vehicle id="28800_55" depart="28844.86">
        <route edges="108820 108738 30013725 2809289 7204415 11034280 107978 14228398 14228399 107784 107688 107615"/>
    </vehicle>
    <vehicle id="28800_56" depart="28846.98">
        <route edges="109062 -109062 -108956 4684710 6535415 13974855 14663886"/>
    </vehicle>
    <vehicle id="28800_57" depart="28847.52">
        <route edges="107919 107853 -107679 -107689 -107784 -14228399 -14228398 -107978 -11034280 -7204415 -2809289 -5066262 -6436415 -6436414 -6436410 -3011699 -109489 -3011683 -5066211 -7179817 -7179805 -110026 -6436449 -4605094 -110141 -7017636"/>
    </vehicle>
    <vehicle id="28800_58" depart="28850.52">
        <route edges="-30101511 -30101514 -30101513 -30101498 30101478 -108915 -109360 -9910076 -30122713 -30122712 -109688 -5087274 7155256"/>
    </vehicle>
    <vehicle id="28800_59" depart="28851.55">
        <route edges="-108914 108915 -30101478 -30101481 -30101484 -30101483 -30109384 -30109383 -30109381 -30109380 -30109375 -30109374 14258090 108429 7204446 108103 6541762 7204482 -108009 -108086 -14020767 -14020766"/>
    </vehicle>
    <vehicle id="28800_60" depart="28851.97">
        <route edges="4889825 110444 110426 110395 14668247 4605077 20040316 20040317 -110339 110338 110296 14605392 14605414"/>
    </vehicle>
    <vehicle id="28800_61" depart="28853.18">
        <route edges="30101488 -30101488 30101484 30101481 30101478 -108915 -109360 -9910076 -30122713 -30122712 -109688 -5087274 -13232758 -109896 -109936 -109940 -109944 -7171803 -109980 -7171791 -110025 -110101 -14605393 -14605392 -110443 -110490 -30001036 30001036 110490 110443"/>
    </vehicle>
    <vehicle id="28800_62" depart="28853.52">
        <route edges="110000 -13232758 -109896 -109936 -109940 -109944 -7171803 -109980 -7171791 -110025 -6436449 -4605094 -110141 -7017636 -6408248 -110427 -110444 -110496 110496 110444"/>
    </vehicle>
    <vehicle id="28800_63" depart="28853.74">
        <route edges="-6332605 11034280 107978 14228398 14228399 20105572 20105568 107571 107499 107494 107431 107403 107385 -107385 -107403"/>
    </vehicle>
    <vehicle id="28800_64" depart="28854.57">
        <route edges="5353566 109835 109816 109803 109782 -109849 -109932 109931 109905 109877 109853 -110026 -6436449"/>
    </vehicle>
    <vehicle id="28800_65" depart="28856.29">
        <route edges="109936 109896 13232758 -110000 -110083"/>
    </vehicle>
    <vehicle id="28800_66" depart="28858.04">
        <route edges="30001036 110490 110443 14605392 14605393 110101 -6436449 -4605094 -110141 -7017636 -6408248 110180 5353566 109836 109627 -109603"/>
    </vehicle>
    <vehicle id="28800_67" depart="28858.22">
        <route edges="-110180 6408248 7017636 110141 6427460 6427464 6427468 6427469 109951 -109803 109798 109588"/>
    </vehicle>
    <vehicle id="28800_68" depart="28860.65">
        <route edges="3497264 110180 5353566 109835 109816 109803 109782 109759 109706"/>
    </vehicle>
    <vehicle id="28800_69" depart="28861.51">
        <route edges="9910076 109359 -109359 -9910076 -30122713 -30122712 -109688 -5087274 -13232758 -109896 -109936 -109940 -109944 -7171803 -109980 -7171791 -110025 -6436449 -4605094 -110141 -7017636 -6408248 -110427 -110444 -110496 -110614 -110728 -110783 -110819 -30087939 30087939 110819 110783 110728"/>
    </vehicle>
    <vehicle id="28800_70" depart="28861.65">
        <route edges="4605094 6436449 110026 7179805 7179817 -109576 -109577 -109550 -109538 -109557 -109583 -109588 -109798"/>
    </vehicle>
    <vehicle id="28800_71" depart="28862.13">
        <route edges="6541762 7204482 -108009 -108086 -14020767 20110483 14228405 14228399 20105572 20105568"/>
    </vehicle>
    <vehicle id="28800_72" depart="28865.40">
        <route edges="-14668275 -11714723 -3011699 -109489 -3011683 -5066211 -7179817 -7179805 -110026 -6436449 -4605094 -110141 -7017636 -6408248 -110427 -110444 -110496 110495"/>
    </vehicle>
    <vehicle id="28800_73" depart="28866.82">
        <route edges="-11034280 2798981 -2798981 11034280 107978 14228398 14228399 20105572"/>
    </vehicle>
    <vehicle id="28800_74" depart="28868.75">
        <route edges="7204446 108103 6541762 7204482 -108009 -108086 -14020767 -14020766 -9638338 -6332605 2798981 108350"/>
    </vehicle>
    <vehicle id="28800_75" depart="28869.37">
        <route edges="7204482 -108009 -108086 -14020767 -14020766 -9638338 -6332605 2798981 -108376 -108447 -108466 -108498 -108550 -108561 -108601 -30013726"/>
    </vehicle>
    <vehicle id="28800_76" depart="28869.85">
        <route edges="-14070145 -20054775 -20054774 6535415 13974855 14663886 108738 -108787 -108863 -108943 -109114 109113"/>
    </vehicle>
    <vehicle id="28800_77" depart="28873.99">
        <route edges="110026 -110026 -6436449 -4605094 -110141 -7017636 -6408248 -110427 -110444 -110496 -110614 -110728 -110783 -110819 -30087939 30087939 110819"/>
    </vehicle>
    <vehicle id="28800_78" depart="28874.44">
        <route edges="110000 -13232758 -109896 -109936 -109940 -109944 -7171803 -109980 -7171791 -110025 110026 -109853"/>
    </vehicle>
    <vehicle id="28800_79" depart="28875.95">
        <route edges="-110444 -110496 110496 110444 110427 6408248 7017636 110141 4605094 6436449 110025 7171791 109980 7171803 109944 109940 109936 109896 13232758 -110000 110021"/>
    </vehicle>
    <vehicle id="28800_80" depart="28876.81">
        <route edges="-110026 -6436449 -4605094 -110141 -7017636 -6408248 110180 5353566 109836 109627 109545 5353633 109295 109276 12691191 4684711 4684714 108988 4684710 20054774 20054775 14070145 108454 108146"/>
    </vehicle>
    <vehicle id="28800_81" depart="28877.78">
        <route edges="110083 110000 -13232758 -109896 -109936 -109940 -109944 -7171803 -109980 -7171791 -110025 -110101 -14605393 -14605392 -110296 -110338 110339 -20040317 -20040316 -4605077 -14668247 -110395 -110426"/>
    </vehicle>
    <vehicle id="28800_82" depart="28878.46">
        <route edges="110191 110083 110000 -13232758 -109896 -109936 -109940 -109944 -7171803 7171803 109944 109940"/>
    </vehicle>
    <vehicle id="28800_83" depart="28879.38">
        <route edges="20054775 -20054775 -20054774 -4684710 -108988 -4684714 -4684711 -5353610"/>
    </vehicle>
    <vehicle id="28800_84" depart="28879.96">
        <route edges="109951 109782 109759 109705 9909946 -109620 109585 109576 5066211 3011683 109489 3011699 6436410 6436414 6436415 5066262 108622 108580 6541761 108534 108519 108515 108501 108432 108429 -108537 108537 -108429"/>
    </vehicle>
    <vehicle id="28800_85" depart="28880.83">
        <route edges="-110629 110629 110568 110533 110519 110497 110366 110296 14605392 14605393 110101 110026 7179805 7179817 5066211 3011683 109489 -30123087 -109369 109319 109114 -109114"/>
    </vehicle>
    <vehicle id="28800_86" depart="28883.06">
        <route edges="107891 -107689 -107784 -14228399 -14228398 -107978 -11034280 2798981 108350 108293 6332587 6332588"/>
    </vehicle>
    <vehicle id="28800_87" depart="28883.73">
        <route edges="30122712 30122713 9910076 109360 108915 -30101478 -30101481 -30101484 -30101483 -30109384 -30109383 -30109381 -30109380 -30109375 -30109374 14258090 -108432 -108501 -108515 -108519 -108534 -6541761 -108580 -108622 2809289 7204415 2798981"/>
    </vehicle>
    <vehicle id="28800_88" depart="28884.07">
        <route edges="4605094 6436449 -110101 110101 -6436449 -4605094 -110141 -7017636 -6408248 110180 -110180 6408248"/>
    </vehicle>
    <vehicle id="28800_89" depart="28884.31">
        <route edges="-30101515 -30101513 -30101498 30101478 -108915 -109360 -9910076 -30122713 -30122712 -109688 -5087274 -13232758 -109896 -109936 -109940 -109944 -7171803 -109980 -7171791 -110025 -6436449 -4605094 -110141 -7017636 -6408248 -110427 -110444 -4889825"/>
    </vehicle>
    <vehicle id="28800_90" depart="28884.63">
        <route edges="3497264 110180 5353566 109836 109627 109545 5353633 109295 109276 12691191 4684711 4684714 108988 4684710 20054774 20054775 14070145 108454 108146 108095 107935 107891 -107689 -107784 -14228399"/>
    </vehicle>
    <vehicle id="28800_91" depart="28884.74">
        <route edges="107671 107656 -107656 -107671 -107679 107678 107615 107564 107499 107494 -7204470 -7204482 -6541762 -108103 -7204446 108388"/>
    </vehicle>
    <vehicle id="28800_92" depart="28887.81">
        <route edges="-30109374 14258090 -108432 -108501 -108515 -108519 -108534 -6541761 -108580 -108622 -5066262 -6436415 -6436414 -6436410 -3011699 -109489 -3011683 -5066211 -109576 -109585 109620 109703 -109722 -109737 -109815 -109906"/>
    </vehicle>
    <vehicle id="28800_93" depart="28888.99">
        <route edges="6332605 9638338 14020766 20110483 14228405 -14228398 -107978 -11034280 -7204415 -2809289 -5066262 -6436415 -6436414 -6436410 -3011699 -109489 -3011683 -5066211 -7179817 -7179805 -109853 -109877 -109905 -109931 -109950 -109975 -110079 -110094 110094"/>
    </vehicle>
    <vehicle id="28800_94" depart="28889.37">
        <route edges="-20054774 -4684710 -108988 -4684714 -4684711 -12691191 -109276 -109295 -5353633 -109545 -109627 -109836 -5353566 -110180 -3497264"/>
    </vehicle>
    <vehicle id="28800_95" depart="28889.88">
        <route edges="5353610 -12691191 -109276 -109295 -7171584 109315 109375 109427 109455 109510 109550 109577 109576 -7179817 -7179805 -110026 110025 7171791 -7171791"/>
    </vehicle>
    <vehicle id="28800_96" depart="28890.85">
        <route edges="110000 -13232758 -109896 -109936 -109940 -109944 -7171803 -109980 -7171791 -110025"/>
    </vehicle>
    <vehicle id="28800_97" depart="28891.13">
        <route edges="107678 107615 107564 107499 107494 -7204470 -108009 -108086 -14020767 20110483 14228405 14228399 107784 107689 107679"/>
    </vehicle>
    <vehicle id="28800_98" depart="28892.47">
        <route edges="-107831 -7204482 -6541762 -108103 -7204446 -108429 -108432 -108501 30083021 30083022 30109374 30109375 30109380 30109381 30109383 30109384 30101483 30101484 30101481 30101478 -108915 -109360 -9910076 -30122713 -30122712 -109688 109688"/>
    </vehicle>
    <vehicle id="28800_99" depart="28893.72">
        <route edges="-110026 -6436449 -4605094 6427460 6427464 6427468 6427469 109951 109782 109759"/>
    </vehicle>
    <vehicle id="28800_100" depart="28893.96">
        <route edges="-20110483 14020767 108086 108009 -7204482 14673433"/>
    </vehicle>
    <vehicle id="28800_101" depart="28894.33">
        <route edges="-14020767 20110483 14228405 14228399 107784 107689 107679 107670 107547 107469"/>
    </vehicle>
    <vehicle id="28800_102" depart="28894.73">
        <route edges="107671 107656 -107656 -107671 -107679 -107689 -107784 -14228399 -14228398 -107978 -11034280 -7204415 -2809289 -30013725 -108738 -14663886 -13974855 -6535415 -108899 108899 6535415 13974855"/>
    </vehicle>
    <vehicle id="28800_103" depart="28895.71">
        <route edges="109557 109538 109550 109577 109576 -7179817 -7179805 -110026 110025 7171791 109980 7171803 109944 109940 109954 -30100022 30100024"/>
    </vehicle>
    <vehicle id="28800_104" depart="28898.00">
        <route edges="-108388 7204446 108103 6541762 7204482 7204470"/>
    </vehicle>
    <vehicle id="28800_105" depart="28899.67">
        <route edges="109759 109705 -109738 109737 -109878 109877 109853 -110026 110025 7171791 109980 7171803 109944 109940 109936 109896 13232758 7155256"/>
    </vehicle>
    <vehicle id="28800_106" depart="28899.88">
        <route edges="110443 14605392 14605393 110101 110025 7171791 109980 7171803 109944 109940 109936 109896 13232758 5087274 109688 30122712 30122713 9910076 109360 108915 -30101478 30101498 -30101515"/>
    </vehicle>
    <vehicle id="28800_107" depart="28900.74">
        <route edges="110296 14605392 14605393 110101 110025 7171791 109980 7171803 109944 109940 109936 109896 13232758 -110000 -110083 -110191"/>
    </vehicle>
    <vehicle id="28800_108" depart="28901.64">
        <route edges="4684710 -108899 108899 -4684710"/>
    </vehicle>
    <vehicle id="28800_109" depart="28901.65">
        <route edges="-110000 110021 30100021 30100022 109928 -109936 -109940 -109944 -7171803 -109980 -7171791 -110025 110026 7179805 7179817 -109576 -109577 -109550 -109538 -109602"/>
    </vehicle>
    <vehicle id="28800_110" depart="28904.16">
        <route edges="6541762 7204482 -108009 -108086 -14020767 20110483 14228405 14228399 107784"/>
    </vehicle>
    <vehicle id="28800_111" depart="28904.42">
        <route edges="-110570 -110613 110614 110496 110444 110427 110180 5353566 109836 109627 109545 5353633 109295 109276 12691191 -5353610"/>
    </vehicle>
    <vehicle id="28800_112" depart="28905.88">
        <route edges="30001036 110490 110443 14605392 14605393 110101 -6436449 -4605094 6427460 6427464 6427468 6427469 -109975 109976 109867 109803"/>
    </vehicle>
    <vehicle id="28800_113" depart="28907.96">
        <route edges="-14020767 20110483 14228405 14228399 20105572 20105568 107571 107499 107494 107431"/>
    </vehicle>
    <vehicle id="28800_114" depart="28908.22">
        <route edges="30111772 -30111766 -30111765 -14070155 14663886 108738 30013725 108622 108580 6541761 108534 108519 108515 108501 108432 108429 -108537 108537 -108429"/>
    </vehicle>
    <vehicle id="28800_115" depart="28910.14">
        <route edges="-109936 -109940 -109944 -7171803 -109980 -7171791 -110025 110026 7179805 7179817 5066211 3011683 109489 -30123087 -109369 -109320 -109260 -109188 -109170"/>
    </vehicle>
    <vehicle id="28800_116" depart="28910.19">
        <route edges="6436449 110026 7179805 7179817 -109576 -109577 -109550 -109538 -109557 -109583 -109588 109588"/>
    </vehicle>
    <vehicle id="28800_117" depart="28913.15">
        <route edges="110141 -110141 -7017636 -6408248 110180 5353566 109836 109627 109545 5353633 109295 109276 12691191 4684711 4684714 108988 4684710 20054774 20054775 14070145"/>
    </vehicle>
    <vehicle id="28800_118" depart="28913.63">
        <route edges="-110426 110427 6408248 7017636 110141 4605094 6436449 110025 7171791 109980 7171803 109944 109940 109936 109896 13232758 5087274 109688 30122712"/>
    </vehicle>
    <vehicle id="28800_119" depart="28914.71">
        <route edges="-4605094 4605094 6436449 110026 7179805 7179817 5066211 3011683 109489 3011699 6436410 6436414 6436415 5066262 2809289 7204415 11034280 107978 14228398 14228399 107784 107689 107679 107670"/>
    </vehicle>
    <vehicle id="28800_120" depart="28915.19">
        <route edges="107958 107935 107890 107802 20105539 20105581 20110472 -14228405 -20110483 14020767 108086 108009"/>
    </vehicle>
    <vehicle id="28800_121" depart="28915.96">
        <route edges="-108388 7204446 108103 6541762 7204482 7204470"/>
    </vehicle>
    <vehicle id="28800_122" depart="28916.64">
        <route edges="14605473 14605482 14605475 7171803 109944 109940 109936 109896 13232758 -110000 110021"/>
    </vehicle>
    <vehicle id="28800_123" depart="28916.84">
        <route edges="4889825 110444 110427 6408248 7017636 110141 4605094 6436449 110025 7171791 109980 7171803 109944 109940 109936 109896 13232758 5087274 109688 30122712 30122713 9910076"/>
    </vehicle>
    <vehicle id="28800_124" depart="28916.94">
        <route edges="14228399 -14228399 -14228398 -107978 -11034280 -7204415 -2809289 -5066262 -6436415 -6436414 -6436410 -3011699 -109489 -3011683 -5066211 -7179817 -7179805 -110026 -6436449 -4605094 -110141 -7017636 -6408248 -110427 -110444 -110496 -110614 -110728 -110783 -110819 -30087939 30087939 110819 110783 110728"/>
    </vehicle>
    <vehicle id="28800_125" depart="28917.04">
        <route edges="30109381 -30109381 -30109380 -30109375 -30109374 14258090 -108432 -108501 -108515 -108519 -108534 -6541761 -108580 -108622 2809289 7204415 11034280 107978 14228398 14228399 107784 107689 107678"/>
    </vehicle>
    <vehicle id="28800_126" depart="28918.21">
        <route edges="108498 108466 108447 108376 -108376 -108447 -108466 -108498 -108550 -108561 -108601 -30013726 -108738 -108820"/>
    </vehicle>
    <vehicle id="28800_127" depart="28918.37">
        <route edges="4605077 -4605077 -14668247 -110395 -110426 110427 -3497264"/>
    </vehicle>
    <vehicle id="28800_128" depart="28918.52">
        <route edges="-107689 -107784 -14228399 -14228398 -107978 -11034280 2798981"/>
    </vehicle>
    <vehicle id="28800_129" depart="28919.14">
        <route edges="-14070155 -13974855 -6535415 -4684710 -108988 -4684714 -4684711 -12691191 -109276 -109295 -5353633 109387 -109387"/>
    </vehicle>
    <vehicle id="28800_130" depart="28922.21">
        <route edges="13232758 5087274 -5087274 -13232758 -109896 -109936 -109940 -109944 -7171803 -109980 -7171791 -110025 110026 -109853 -109877 -109905 109906 109815 109738"/>
    </vehicle>
    <vehicle id="28800_131" depart="28923.30">
        <route edges="5353566 109835 109816 109803 -109951 -6427469 -6427468 -6427464 -6427460 4605094 6436449 110025 7171791 109980 7171803 109944 109940 109936 109896 13232758 -110000 110021 30100021"/>
    </vehicle>
    <vehicle id="28800_132" depart="28923.77">
        <route edges="30109381 30109383 30109384 30101483 30101484 30101481 30101478 -108915 -109360 -9910076 -30122713 -30122712 -109688 -5087274 -13232758 -109896 -109936 -109940 -109944 -7171803 -109980 -7171791 -110025 -110101 -14605393 -14605392 -110296 -110338 110339 -20040317 -20040316 -4605077 -14668247 -110395 110395"/>