<additional xmlns:xsi="http://www.w3.org/2001/XMLSchema-instance" xsi:noNamespaceSchemaLocation="http://sumo.dlr.de/xsd/additional_file.xsd">
    <e1Detector file="e1output.xml" freq="5" friendlyPos="x" id="e1det_-107831_0" lane="-107831_0" pos="231.47"/>
    <e1Detector file="e1output.xml" freq="5" friendlyPos="x" id="e1det_-107831_1" lane="-107831_1" pos="231.47"/>
    <e1Detector file="e1output.xml" freq="5" friendlyPos="x" id="e1det_-7204470_0" lane="-7204470_0" pos="440.83"/>
    <e1Detector file="e1output.xml" freq="5" friendlyPos="x" id="e1det_-7204470_1" lane="-7204470_1" pos="440.83"/>
    <e1Detector file="e1output.xml" freq="5" friendlyPos="x" id="e1det_-7204470_2" lane="-7204470_2" pos="440.83"/>
    <e1Detector file="e1output.xml" freq="5" friendlyPos="x" id="e1det_-7204470_3" lane="-7204470_3" pos="440.83"/>
    <e1Detector file="e1output.xml" freq="5" friendlyPos="x" id="e1det_108009_0" lane="108009_0" pos="331.40000000000003"/>
    <e1Detector file="e1output.xml" freq="5" friendlyPos="x" id="e1det_108009_1" lane="108009_1" pos="331.40000000000003"/>
    <e1Detector file="e1output.xml" freq="5" friendlyPos="x" id="e1det_7204482_0" lane="7204482_0" pos="168.41000000000003"/>
    <e1Detector file="e1output.xml" freq="5" friendlyPos="x" id="e1det_7204482_1" lane="7204482_1" pos="168.41000000000003"/>
    <e1Detector file="e1output.xml" freq="5" friendlyPos="x" id="e1det_7204482_2" lane="7204482_2" pos="168.41000000000003"/>
    <e1Detector file="e1output.xml" freq="5" friendlyPos="x" id="e1det_7204482_3" lane="7204482_3" pos="168.41000000000003"/>
    <e1Detector file="e1output.xml" freq="5" friendlyPos="x" id="e1det_-107978_0" lane="-107978_0" pos="104.11"/>
    <e1Detector file="e1output.xml" freq="5" friendlyPos="x" id="e1det_-107978_1" lane="-107978_1" pos="104.11"/>
    <e1Detector file="e1output.xml" freq="5" friendlyPos="x" id="e1det_-107978_2" lane="-107978_2" pos="104.11"/>
    <e1Detector file="e1output.xml" freq="5" friendlyPos="x" id="e1det_-107978_3" lane="-107978_3" pos="104.11"/>
    <e1Detector file="e1output.xml" freq="5" friendlyPos="x" id="e1det_-108026_0" lane="-108026_0" pos="207.56"/>
    <e1Detector file="e1output.xml" freq="5" friendlyPos="x" id="e1det_-108026_1" lane="-108026_1" pos="207.56"/>
    <e1Detector file="e1output.xml" freq="5" friendlyPos="x" id="e1det_11034280_0" lane="11034280_0" pos="245.75"/>
    <e1Detector file="e1output.xml" freq="5" friendlyPos="x" id="e1det_11034280_1" lane="11034280_1" pos="245.75"/>
    <e1Detector file="e1output.xml" freq="5" friendlyPos="x" id="e1det_11034280_2" lane="11034280_2" pos="245.75"/>
    <e1Detector file="e1output.xml" freq="5" friendlyPos="x" id="e1det_11034280_3" lane="11034280_3" pos="245.75"/>
    <e1Detector file="e1output.xml" freq="5" friendlyPos="x" id="e1det_-108388_0" lane="-108388_0" pos="175.97"/>
    <e1Detector file="e1output.xml" freq="5" friendlyPos="x" id="e1det_-108388_1" lane="-108388_1" pos="175.97"/>
    <e1Detector file="e1output.xml" freq="5" friendlyPos="x" id="e1det_-108388_2" lane="-108388_2" pos="175.97"/>
    <e1Detector file="e1output.xml" freq="5" friendlyPos="x" id="e1det_-108388_3" lane="-108388_3" pos="175.97"/>
    <e1Detector file="e1output.xml" freq="5" friendlyPos="x" id="e1det_-7204446_0" lane="-7204446_0" pos="270.46000000000004"/>
    <e1Detector file="e1output.xml" freq="5" friendlyPos="x" id="e1det_-7204446_1" lane="-7204446_1" pos="270.46000000000004"/>
    <e1Detector file="e1output.xml" freq="5" friendlyPos="x" id="e1det_-7204446_2" lane="-7204446_2" pos="270.46000000000004"/>
    <e1Detector file="e1output.xml" freq="5" friendlyPos="x" id="e1det_-7204446_3" lane="-7204446_3" pos="270.46000000000004"/>
    <e1Detector file="e1output.xml" freq="5" friendlyPos="x" id="e1det_108429_0" lane="108429_0" pos="122.11"/>
    <e1Detector file="e1output.xml" freq="5" friendlyPos="x" id="e1det_108429_1" lane="108429_1" pos="122.11"/>
    <e1Detector file="e1output.xml" freq="5" friendlyPos="x" id="e1det_108429_2" lane="108429_2" pos="122.11"/>
    <e1Detector file="e1output.xml" freq="5" friendlyPos="x" id="e1det_108429_3" lane="108429_3" pos="122.11"/>
    <e1Detector file="e1output.xml" freq="5" friendlyPos="x" id="e1det_108537_0" lane="108537_0" pos="137.08"/>
    <e1Detector file="e1output.xml" freq="5" friendlyPos="x" id="e1det_108537_1" lane="108537_1" pos="137.08"/>
    <e1Detector file="e1output.xml" freq="5" friendlyPos="x" id="e1det_108537_2" lane="108537_2" pos="137.08"/>
    <e1Detector file="e1output.xml" freq="5" friendlyPos="x" id="e1det_108537_3" lane="108537_3" pos="137.08"/>
    <e1Detector file="e1output.xml" freq="5" friendlyPos="x" id="e1det_-108622_0" lane="-108622_0" pos="118.41"/>
    <e1Detector file="e1output.xml" freq="5" friendlyPos="x" id="e1det_-108622_1" lane="-108622_1" pos="118.41"/>
    <e1Detector file="e1output.xml" freq="5" friendlyPos="x" id="e1det_-108622_2" lane="-108622_2" pos="118.41"/>
    <e1Detector file="e1output.xml" freq="5" friendlyPos="x" id="e1det_-108622_3" lane="-108622_3" pos="118.41"/>
    <e1Detector file="e1output.xml" freq="5" friendlyPos="x" id="e1det_-2809289_0" lane="-2809289_0" pos="128.14000000000001"/>
    <e1Detector file="e1output.xml" freq="5" friendlyPos="x" id="e1det_-2809289_1" lane="-2809289_1" pos="128.14000000000001"/>
    <e1Detector file="e1output.xml" freq="5" friendlyPos="x" id="e1det_-2809289_2" lane="-2809289_2" pos="128.14000000000001"/>
    <e1Detector file="e1output.xml" freq="5" friendlyPos="x" id="e1det_-2809289_3" lane="-2809289_3" pos="128.14000000000001"/>
    <e1Detector file="e1output.xml" freq="5" friendlyPos="x" id="e1det_30013725_0" lane="30013725_0" pos="198.79000000000002"/>
    <e1Detector file="e1output.xml" freq="5" friendlyPos="x" id="e1det_30013725_1" lane="30013725_1" pos="198.79000000000002"/>
    <e1Detector file="e1output.xml" freq="5" friendlyPos="x" id="e1det_30013725_2" lane="30013725_2" pos="198.79000000000002"/>
    <e1Detector file="e1output.xml" freq="5" friendlyPos="x" id="e1det_30013725_3" lane="30013725_3" pos="198.79000000000002"/>
    <e1Detector file="e1output.xml" freq="5" friendlyPos="x" id="e1det_5066262_0" lane="5066262_0" pos="490.77000000000004"/>
    <e1Detector file="e1output.xml" freq="5" friendlyPos="x" id="e1det_5066262_1" lane="5066262_1" pos="490.77000000000004"/>
    <e1Detector file="e1output.xml" freq="5" friendlyPos="x" id="e1det_5066262_2" lane="5066262_2" pos="490.77000000000004"/>
    <e1Detector file="e1output.xml" freq="5" friendlyPos="x" id="e1det_5066262_3" lane="5066262_3" pos="490.77000000000004"/>
    <e1Detector file="e1output.xml" freq="5" friendlyPos="x" id="e1det_-109295_0" lane="-109295_0" pos="0"/>
    <e1Detector file="e1output.xml" freq="5" friendlyPos="x" id="e1det_-109295_1" lane="-109295_1" pos="0"/>
    <e1Detector file="e1output.xml" freq="5" friendlyPos="x" id="e1det_-109295_2" lane="-109295_2" pos="0"/>
    <e1Detector file="e1output.xml" freq="5" friendlyPos="x" id="e1det_-109295_3" lane="-109295_3" pos="0"/>
    <e1Detector file="e1output.xml" freq="5" friendlyPos="x" id="e1det_5353633_0" lane="5353633_0" pos="102.66"/>
    <e1Detector file="e1output.xml" freq="5" friendlyPos="x" id="e1det_5353633_1" lane="5353633_1" pos="102.66"/>
    <e1Detector file="e1output.xml" freq="5" friendlyPos="x" id="e1det_5353633_2" lane="5353633_2" pos="102.66"/>
    <e1Detector file="e1output.xml" freq="5" friendlyPos="x" id="e1det_5353633_3" lane="5353633_3" pos="102.66"/>
    <e1Detector file="e1output.xml" freq="5" friendlyPos="x" id="e1det_7171584_0" lane="7171584_0" pos="249.85000000000002"/>
    <e1Detector file="e1output.xml" freq="5" friendlyPos="x" id="e1det_7171584_1" lane="7171584_1" pos="249.85000000000002"/>
    <e1Detector file="e1output.xml" freq="5" friendlyPos="x" id="e1det_-109359_0" lane="-109359_0" pos="51.839999999999996"/>
    <e1Detector file="e1output.xml" freq="5" friendlyPos="x" id="e1det_-109359_1" lane="-109359_1" pos="51.839999999999996"/>
    <e1Detector file="e1output.xml" freq="5" friendlyPos="x" id="e1det_-109360_0" lane="-109360_0" pos="514.89"/>
    <e1Detector file="e1output.xml" freq="5" friendlyPos="x" id="e1det_-109360_1" lane="-109360_1" pos="514.89"/>
    <e1Detector file="e1output.xml" freq="5" friendlyPos="x" id="e1det_-109360_2" lane="-109360_2" pos="514.89"/>
    <e1Detector file="e1output.xml" freq="5" friendlyPos="x" id="e1det_-109360_3" lane="-109360_3" pos="514.89"/>
    <e1Detector file="e1output.xml" freq="5" friendlyPos="x" id="e1det_9910076_0" lane="9910076_0" pos="215.5"/>
    <e1Detector file="e1output.xml" freq="5" friendlyPos="x" id="e1det_9910076_1" lane="9910076_1" pos="215.5"/>
    <e1Detector file="e1output.xml" freq="5" friendlyPos="x" id="e1det_9910076_2" lane="9910076_2" pos="215.5"/>
    <e1Detector file="e1output.xml" freq="5" friendlyPos="x" id="e1det_9910076_3" lane="9910076_3" pos="215.5"/>
    <e1Detector file="e1output.xml" freq="5" friendlyPos="x" id="e1det_-109545_0" lane="-109545_0" pos="216.10000000000002"/>
    <e1Detector file="e1output.xml" freq="5" friendlyPos="x" id="e1det_-109545_1" lane="-109545_1" pos="216.10000000000002"/>
    <e1Detector file="e1output.xml" freq="5" friendlyPos="x" id="e1det_-109545_2" lane="-109545_2" pos="216.10000000000002"/>
    <e1Detector file="e1output.xml" freq="5" friendlyPos="x" id="e1det_-109545_3" lane="-109545_3" pos="216.10000000000002"/>
    <e1Detector file="e1output.xml" freq="5" friendlyPos="x" id="e1det_109603_0" lane="109603_0" pos="244.18"/>
    <e1Detector file="e1output.xml" freq="5" friendlyPos="x" id="e1det_109603_1" lane="109603_1" pos="244.18"/>
    <e1Detector file="e1output.xml" freq="5" friendlyPos="x" id="e1det_109627_0" lane="109627_0" pos="117.72"/>
    <e1Detector file="e1output.xml" freq="5" friendlyPos="x" id="e1det_109627_1" lane="109627_1" pos="117.72"/>
    <e1Detector file="e1output.xml" freq="5" friendlyPos="x" id="e1det_109627_2" lane="109627_2" pos="117.72"/>
    <e1Detector file="e1output.xml" freq="5" friendlyPos="x" id="e1det_109627_3" lane="109627_3" pos="117.72"/>
    <e1Detector file="e1output.xml" freq="5" friendlyPos="x" id="e1det_-109835_0" lane="-109835_0" pos="67.64999999999999"/>
    <e1Detector file="e1output.xml" freq="5" friendlyPos="x" id="e1det_-109835_1" lane="-109835_1" pos="67.64999999999999"/>
    <e1Detector file="e1output.xml" freq="5" friendlyPos="x" id="e1det_-109836_0" lane="-109836_0" pos="293.04"/>
    <e1Detector file="e1output.xml" freq="5" friendlyPos="x" id="e1det_-109836_1" lane="-109836_1" pos="293.04"/>
    <e1Detector file="e1output.xml" freq="5" friendlyPos="x" id="e1det_-109836_2" lane="-109836_2" pos="293.04"/>
    <e1Detector file="e1output.xml" freq="5" friendlyPos="x" id="e1det_-109836_3" lane="-109836_3" pos="293.04"/>
    <e1Detector file="e1output.xml" freq="5" friendlyPos="x" id="e1det_5353566_0" lane="5353566_0" pos="380.35"/>
    <e1Detector file="e1output.xml" freq="5" friendlyPos="x" id="e1det_5353566_1" lane="5353566_1" pos="380.35"/>
    <e1Detector file="e1output.xml" freq="5" friendlyPos="x" id="e1det_5353566_2" lane="5353566_2" pos="380.35"/>
    <e1Detector file="e1output.xml" freq="5" friendlyPos="x" id="e1det_5353566_3" lane="5353566_3" pos="380.35"/>
    <e1Detector file="e1output.xml" freq="5" friendlyPos="x" id="e1det_-110000_0" lane="-110000_0" pos="180.52"/>
    <e1Detector file="e1output.xml" freq="5" friendlyPos="x" id="e1det_-110000_1" lane="-110000_1" pos="180.52"/>
    <e1Detector file="e1output.xml" freq="5" friendlyPos="x" id="e1det_-110000_2" lane="-110000_2" pos="180.52"/>
    <e1Detector file="e1output.xml" freq="5" friendlyPos="x" id="e1det_-110000_3" lane="-110000_3" pos="180.52"/>
    <e1Detector file="e1output.xml" freq="5" friendlyPos="x" id="e1det_-110021_0" lane="-110021_0" pos="108.39999999999999"/>
    <e1Detector file="e1output.xml" freq="5" friendlyPos="x" id="e1det_-110021_1" lane="-110021_1" pos="108.39999999999999"/>
    <e1Detector file="e1output.xml" freq="5" friendlyPos="x" id="e1det_110083_0" lane="110083_0" pos="118.28"/>
    <e1Detector file="e1output.xml" freq="5" friendlyPos="x" id="e1det_110083_1" lane="110083_1" pos="118.28"/>
    <e1Detector file="e1output.xml" freq="5" friendlyPos="x" id="e1det_110083_2" lane="110083_2" pos="118.28"/>
    <e1Detector file="e1output.xml" freq="5" friendlyPos="x" id="e1det_110083_3" lane="110083_3" pos="118.28"/>
    <e1Detector file="e1output.xml" freq="5" friendlyPos="x" id="e1det_-110025_0" lane="-110025_0" pos="138.13000000000002"/>
    <e1Detector file="e1output.xml" freq="5" friendlyPos="x" id="e1det_-110025_1" lane="-110025_1" pos="138.13000000000002"/>
    <e1Detector file="e1output.xml" freq="5" friendlyPos="x" id="e1det_-110025_2" lane="-110025_2" pos="138.13000000000002"/>
    <e1Detector file="e1output.xml" freq="5" friendlyPos="x" id="e1det_-110025_3" lane="-110025_3" pos="138.13000000000002"/>
    <e1Detector file="e1output.xml" freq="5" friendlyPos="x" id="e1det_-110026_0" lane="-110026_0" pos="250.66000000000003"/>
    <e1Detector file="e1output.xml" freq="5" friendlyPos="x" id="e1det_-110026_1" lane="-110026_1" pos="250.66000000000003"/>
    <e1Detector file="e1output.xml" freq="5" friendlyPos="x" id="e1det_-110026_2" lane="-110026_2" pos="250.66000000000003"/>
    <e1Detector file="e1output.xml" freq="5" friendlyPos="x" id="e1det_-110026_3" lane="-110026_3" pos="250.66000000000003"/>
    <e1Detector file="e1output.xml" freq="5" friendlyPos="x" id="e1det_110101_0" lane="110101_0" pos="94.78999999999999"/>
    <e1Detector file="e1output.xml" freq="5" friendlyPos="x" id="e1det_110101_1" lane="110101_1" pos="94.78999999999999"/>
    <e1Detector file="e1output.xml" freq="5" friendlyPos="x" id="e1det_110101_2" lane="110101_2" pos="94.78999999999999"/>
    <e1Detector file="e1output.xml" freq="5" friendlyPos="x" id="e1det_110101_3" lane="110101_3" pos="94.78999999999999"/>
    <e1Detector file="e1output.xml" freq="5" friendlyPos="x" id="e1det_6436449_0" lane="6436449_0" pos="386.97"/>
    <e1Detector file="e1output.xml" freq="5" friendlyPos="x" id="e1det_6436449_1" lane="6436449_1" pos="386.97"/>
    <e1Detector file="e1output.xml" freq="5" friendlyPos="x" id="e1det_6436449_2" lane="6436449_2" pos="386.97"/>
    <e1Detector file="e1output.xml" freq="5" friendlyPos="x" id="e1det_6436449_3" lane="6436449_3" pos="386.97"/>
    <e1Detector file="e1output.xml" freq="5" friendlyPos="x" id="e1det_-110180_0" lane="-110180_0" pos="84.17"/>
    <e1Detector file="e1output.xml" freq="5" friendlyPos="x" id="e1det_-110180_1" lane="-110180_1" pos="84.17"/>
    <e1Detector file="e1output.xml" freq="5" friendlyPos="x" id="e1det_-110180_2" lane="-110180_2" pos="84.17"/>
    <e1Detector file="e1output.xml" freq="5" friendlyPos="x" id="e1det_-110180_3" lane="-110180_3" pos="84.17"/>
    <e1Detector file="e1output.xml" freq="5" friendlyPos="x" id="e1det_-6408248_0" lane="-6408248_0" pos="160.03"/>
    <e1Detector file="e1output.xml" freq="5" friendlyPos="x" id="e1det_-6408248_1" lane="-6408248_1" pos="160.03"/>
    <e1Detector file="e1output.xml" freq="5" friendlyPos="x" id="e1det_-6408248_2" lane="-6408248_2" pos="160.03"/>
    <e1Detector file="e1output.xml" freq="5" friendlyPos="x" id="e1det_-6408248_3" lane="-6408248_3" pos="160.03"/>
    <e1Detector file="e1output.xml" freq="5" friendlyPos="x" id="e1det_110427_0" lane="110427_0" pos="341.08"/>
    <e1Detector file="e1output.xml" freq="5" friendlyPos="x" id="e1det_110427_1" lane="110427_1" pos="341.08"/>
    <e1Detector file="e1output.xml" freq="5" friendlyPos="x" id="e1det_110427_2" lane="110427_2" pos="341.08"/>
    <e1Detector file="e1output.xml" freq="5" friendlyPos="x" id="e1det_110427_3" lane="110427_3" pos="341.08"/>
    <e1Detector file="e1output.xml" freq="5" friendlyPos="x" id="e1det_3497264_0" lane="3497264_0" pos="246.11"/>
    <e1Detector file="e1output.xml" freq="5" friendlyPos="x" id="e1det_3497264_1" lane="3497264_1" pos="246.11"/>
    <e1Detector file="e1output.xml" freq="5" friendlyPos="x" id="e1det_3497264_2" lane="3497264_2" pos="246.11"/>
    <e1Detector file="e1output.xml" freq="5" friendlyPos="x" id="e1det_3497264_3" lane="3497264_3" pos="246.11"/>
    <e1Detector file="e1output.xml" freq="5" friendlyPos="x" id="e1det_-11034280_0" lane="-11034280_0" pos="245.99"/>
    <e1Detector file="e1output.xml" freq="5" friendlyPos="x" id="e1det_-11034280_1" lane="-11034280_1" pos="245.99"/>
    <e1Detector file="e1output.xml" freq="5" friendlyPos="x" id="e1det_-11034280_2" lane="-11034280_2" pos="245.99"/>
    <e1Detector file="e1output.xml" freq="5" friendlyPos="x" id="e1det_-11034280_3" lane="-11034280_3" pos="245.99"/>
    <e1Detector file="e1output.xml" freq="5" friendlyPos="x" id="e1det_-2798981_0" lane="-2798981_0" pos="240.04000000000002"/>
    <e1Detector file="e1output.xml" freq="5" friendlyPos="x" id="e1det_-2798981_1" lane="-2798981_1" pos="240.04000000000002"/>
    <e1Detector file="e1output.xml" freq="5" friendlyPos="x" id="e1det_-6332605_0" lane="-6332605_0" pos="97.61"/>
    <e1Detector file="e1output.xml" freq="5" friendlyPos="x" id="e1det_-6332605_1" lane="-6332605_1" pos="97.61"/>
    <e1Detector file="e1output.xml" freq="5" friendlyPos="x" id="e1det_7204415_0" lane="7204415_0" pos="256.04"/>
    <e1Detector file="e1output.xml" freq="5" friendlyPos="x" id="e1det_7204415_1" lane="7204415_1" pos="256.04"/>
    <e1Detector file="e1output.xml" freq="5" friendlyPos="x" id="e1det_7204415_2" lane="7204415_2" pos="256.04"/>
    <e1Detector file="e1output.xml" freq="5" friendlyPos="x" id="e1det_7204415_3" lane="7204415_3" pos="256.04"/>
    <e1Detector file="e1output.xml" freq="5" friendlyPos="x" id="e1det_-110444_0" lane="-110444_0" pos="4.99"/>
    <e1Detector file="e1output.xml" freq="5" friendlyPos="x" id="e1det_-110444_1" lane="-110444_1" pos="4.99"/>
    <e1Detector file="e1output.xml" freq="5" friendlyPos="x" id="e1det_-110444_2" lane="-110444_2" pos="4.99"/>
    <e1Detector file="e1output.xml" freq="5" friendlyPos="x" id="e1det_-110444_3" lane="-110444_3" pos="4.99"/>
    <e1Detector file="e1output.xml" freq="5" friendlyPos="x" id="e1det_110496_0" lane="110496_0" pos="45.91"/>
    <e1Detector file="e1output.xml" freq="5" friendlyPos="x" id="e1det_110496_1" lane="110496_1" pos="45.91"/>
    <e1Detector file="e1output.xml" freq="5" friendlyPos="x" id="e1det_110496_2" lane="110496_2" pos="45.91"/>
    <e1Detector file="e1output.xml" freq="5" friendlyPos="x" id="e1det_110496_3" lane="110496_3" pos="45.91"/>
    <e1Detector file="e1output.xml" freq="5" friendlyPos="x" id="e1det_4889825_0" lane="4889825_0" pos="221.64000000000001"/>
    <e1Detector file="e1output.xml" freq="5" friendlyPos="x" id="e1det_4889825_1" lane="4889825_1" pos="221.64000000000001"/>
    <e1Detector file="e1output.xml" freq="5" friendlyPos="x" id="e1det_-110613_0" lane="-110613_0" pos="107.78999999999999"/>
    <e1Detector file="e1output.xml" freq="5" friendlyPos="x" id="e1det_-110613_1" lane="-110613_1" pos="107.78999999999999"/>
    <e1Detector file="e1output.xml" freq="5" friendlyPos="x" id="e1det_-110614_0" lane="-110614_0" pos="137.91000000000003"/>
    <e1Detector file="e1output.xml" freq="5" friendlyPos="x" id="e1det_-110614_1" lane="-110614_1" pos="137.91000000000003"/>
    <e1Detector file="e1output.xml" freq="5" friendlyPos="x" id="e1det_-110614_2" lane="-110614_2" pos="137.91000000000003"/>
    <e1Detector file="e1output.xml" freq="5" friendlyPos="x" id="e1det_-110614_3" lane="-110614_3" pos="137.91000000000003"/>
    <e1Detector file="e1output.xml" freq="5" friendlyPos="x" id="e1det_110728_0" lane="110728_0" pos="156.47"/>
    <e1Detector file="e1output.xml" freq="5" friendlyPos="x" id="e1det_110728_1" lane="110728_1" pos="156.47"/>
    <e1Detector file="e1output.xml" freq="5" friendlyPos="x" id="e1det_110728_2" lane="110728_2" pos="156.47"/>
    <e1Detector file="e1output.xml" freq="5" friendlyPos="x" id="e1det_110728_3" lane="110728_3" pos="156.47"/>
    <e1Detector file="e1output.xml" freq="5" friendlyPos="x" id="e1det_-11714721_0" lane="-11714721_0" pos="154.4"/>
    <e1Detector file="e1output.xml" freq="5" friendlyPos="x" id="e1det_-11714721_1" lane="-11714721_1" pos="154.4"/>
    <e1Detector file="e1output.xml" freq="5" friendlyPos="x" id="e1det_-7179817_0" lane="-7179817_0" pos="230.94"/>
    <e1Detector file="e1output.xml" freq="5" friendlyPos="x" id="e1det_-7179817_1" lane="-7179817_1" pos="230.94"/>
    <e1Detector file="e1output.xml" freq="5" friendlyPos="x" id="e1det_-7179817_2" lane="-7179817_2" pos="230.94"/>
    <e1Detector file="e1output.xml" freq="5" friendlyPos="x" id="e1det_-7179817_3" lane="-7179817_3" pos="230.94"/>
    <e1Detector file="e1output.xml" freq="5" friendlyPos="x" id="e1det_7179805_0" lane="7179805_0" pos="130.33"/>
    <e1Detector file="e1output.xml" freq="5" friendlyPos="x" id="e1det_7179805_1" lane="7179805_1" pos="130.33"/>
    <e1Detector file="e1output.xml" freq="5" friendlyPos="x" id="e1det_7179805_2" lane="7179805_2" pos="130.33"/>
    <e1Detector file="e1output.xml" freq="5" friendlyPos="x" id="e1det_7179805_3" lane="7179805_3" pos="130.33"/>
    <e1Detector file="e1output.xml" freq="5" friendlyPos="x" id="e1det_-11714723_0" lane="-11714723_0" pos="210.78"/>
    <e1Detector file="e1output.xml" freq="5" friendlyPos="x" id="e1det_-11714723_1" lane="-11714723_1" pos="210.78"/>
    <e1Detector file="e1output.xml" freq="5" friendlyPos="x" id="e1det_-6436410_0" lane="-6436410_0" pos="39.589999999999996"/>
    <e1Detector file="e1output.xml" freq="5" friendlyPos="x" id="e1det_-6436410_1" lane="-6436410_1" pos="39.589999999999996"/>
    <e1Detector file="e1output.xml" freq="5" friendlyPos="x" id="e1det_-6436410_2" lane="-6436410_2" pos="39.589999999999996"/>
    <e1Detector file="e1output.xml" freq="5" friendlyPos="x" id="e1det_-6436410_3" lane="-6436410_3" pos="39.589999999999996"/>
    <e1Detector file="e1output.xml" freq="5" friendlyPos="x" id="e1det_3011699_0" lane="3011699_0" pos="206.70000000000002"/>
    <e1Detector file="e1output.xml" freq="5" friendlyPos="x" id="e1det_3011699_1" lane="3011699_1" pos="206.70000000000002"/>
    <e1Detector file="e1output.xml" freq="5" friendlyPos="x" id="e1det_3011699_2" lane="3011699_2" pos="206.70000000000002"/>
    <e1Detector file="e1output.xml" freq="5" friendlyPos="x" id="e1det_3011699_3" lane="3011699_3" pos="206.70000000000002"/>
    <e1Detector file="e1output.xml" freq="5" friendlyPos="x" id="e1det_-14020767_0" lane="-14020767_0" pos="100.86"/>
    <e1Detector file="e1output.xml" freq="5" friendlyPos="x" id="e1det_-14020767_1" lane="-14020767_1" pos="100.86"/>
    <e1Detector file="e1output.xml" freq="5" friendlyPos="x" id="e1det_-20110483_0" lane="-20110483_0" pos="588.5799999999999"/>
    <e1Detector file="e1output.xml" freq="5" friendlyPos="x" id="e1det_-20110483_1" lane="-20110483_1" pos="588.5799999999999"/>
    <e1Detector file="e1output.xml" freq="5" friendlyPos="x" id="e1det_14020766_0" lane="14020766_0" pos="34.589999999999996"/>
    <e1Detector file="e1output.xml" freq="5" friendlyPos="x" id="e1det_14020766_1" lane="14020766_1" pos="34.589999999999996"/>
    <e1Detector file="e1output.xml" freq="5" friendlyPos="x" id="e1det_-14070155_0" lane="-14070155_0" pos="109.71"/>
    <e1Detector file="e1output.xml" freq="5" friendlyPos="x" id="e1det_-14070155_1" lane="-14070155_1" pos="109.71"/>
    <e1Detector file="e1output.xml" freq="5" friendlyPos="x" id="e1det_-14663886_0" lane="-14663886_0" pos="134.58"/>
    <e1Detector file="e1output.xml" freq="5" friendlyPos="x" id="e1det_-14663886_1" lane="-14663886_1" pos="134.58"/>
    <e1Detector file="e1output.xml" freq="5" friendlyPos="x" id="e1det_-14663886_2" lane="-14663886_2" pos="134.58"/>
    <e1Detector file="e1output.xml" freq="5" friendlyPos="x" id="e1det_-14663886_3" lane="-14663886_3" pos="134.58"/>
    <e1Detector file="e1output.xml" freq="5" friendlyPos="x" id="e1det_13974855_0" lane="13974855_0" pos="62.61"/>
    <e1Detector file="e1output.xml" freq="5" friendlyPos="x" id="e1det_13974855_1" lane="13974855_1" pos="62.61"/>
    <e1Detector file="e1output.xml" freq="5" friendlyPos="x" id="e1det_13974855_2" lane="13974855_2" pos="62.61"/>
    <e1Detector file="e1output.xml" freq="5" friendlyPos="x" id="e1det_13974855_3" lane="13974855_3" pos="62.61"/>
    <e1Detector file="e1output.xml" freq="5" friendlyPos="x" id="e1det_-14228399_0" lane="-14228399_0" pos="28.68"/>
    <e1Detector file="e1output.xml" freq="5" friendlyPos="x" id="e1det_-14228399_1" lane="-14228399_1" pos="28.68"/>
    <e1Detector file="e1output.xml" freq="5" friendlyPos="x" id="e1det_-14228399_2" lane="-14228399_2" pos="28.68"/>
    <e1Detector file="e1output.xml" freq="5" friendlyPos="x" id="e1det_-14228399_3" lane="-14228399_3" pos="28.68"/>
    <e1Detector file="e1output.xml" freq="5" friendlyPos="x" id="e1det_14228398_0" lane="14228398_0" pos="44.059999999999995"/>
    <e1Detector file="e1output.xml" freq="5" friendlyPos="x" id="e1det_14228398_1" lane="14228398_1" pos="44.059999999999995"/>
    <e1Detector file="e1output.xml" freq="5" friendlyPos="x" id="e1det_14228398_2" lane="14228398_2" pos="44.059999999999995"/>
    <e1Detector file="e1output.xml" freq="5" friendlyPos="x" id="e1det_14228398_3" lane="14228398_3" pos="44.059999999999995"/>
    <e1Detector file="e1output.xml" freq="5" friendlyPos="x" id="e1det_14228405_0" lane="14228405_0" pos="0"/>
    <e1Detector file="e1output.xml" freq="5" friendlyPos="x" id="e1det_14228405_1" lane="14228405_1" pos="0"/>
    <e1Detector file="e1output.xml" freq="5" friendlyPos="x" id="e1det_20110472_0" lane="20110472_0" pos="5.53"/>
    <e1Detector file="e1output.xml" freq="5" friendlyPos="x" id="e1det_-14605392_0" lane="-14605392_0" pos="120.99"/>
    <e1Detector file="e1output.xml" freq="5" friendlyPos="x" id="e1det_-14605392_1" lane="-14605392_1" pos="120.99"/>
    <e1Detector file="e1output.xml" freq="5" friendlyPos="x" id="e1det_-14605392_2" lane="-14605392_2" pos="120.99"/>
    <e1Detector file="e1output.xml" freq="5" friendlyPos="x" id="e1det_-14605392_3" lane="-14605392_3" pos="120.99"/>
    <e1Detector file="e1output.xml" freq="5" friendlyPos="x" id="e1det_110296_0" lane="110296_0" pos="69.94"/>
    <e1Detector file="e1output.xml" freq="5" friendlyPos="x" id="e1det_110296_1" lane="110296_1" pos="69.94"/>
    <e1Detector file="e1output.xml" freq="5" friendlyPos="x" id="e1det_110443_0" lane="110443_0" pos="226.67000000000002"/>
    <e1Detector file="e1output.xml" freq="5" friendlyPos="x" id="e1det_110443_1" lane="110443_1" pos="226.67000000000002"/>
    <e1Detector file="e1output.xml" freq="5" friendlyPos="x" id="e1det_110443_2" lane="110443_2" pos="226.67000000000002"/>
    <e1Detector file="e1output.xml" freq="5" friendlyPos="x" id="e1det_110443_3" lane="110443_3" pos="226.67000000000002"/>
    <e1Detector file="e1output.xml" freq="5" friendlyPos="x" id="e1det_-20054774_0" lane="-20054774_0" pos="161.47"/>
    <e1Detector file="e1output.xml" freq="5" friendlyPos="x" id="e1det_-20054774_1" lane="-20054774_1" pos="161.47"/>
    <e1Detector file="e1output.xml" freq="5" friendlyPos="x" id="e1det_-20054774_2" lane="-20054774_2" pos="161.47"/>
    <e1Detector file="e1output.xml" freq="5" friendlyPos="x" id="e1det_-20054774_3" lane="-20054774_3" pos="161.47"/>
    <e1Detector file="e1output.xml" freq="5" friendlyPos="x" id="e1det_-6535415_0" lane="-6535415_0" pos="216.76000000000002"/>
    <e1Detector file="e1output.xml" freq="5" friendlyPos="x" id="e1det_-6535415_1" lane="-6535415_1" pos="216.76000000000002"/>
    <e1Detector file="e1output.xml" freq="5" friendlyPos="x" id="e1det_-6535415_2" lane="-6535415_2" pos="216.76000000000002"/>
    <e1Detector file="e1output.xml" freq="5" friendlyPos="x" id="e1det_-6535415_3" lane="-6535415_3" pos="216.76000000000002"/>
    <e1Detector file="e1output.xml" freq="5" friendlyPos="x" id="e1det_108899_0" lane="108899_0" pos="99.09"/>
    <e1Detector file="e1output.xml" freq="5" friendlyPos="x" id="e1det_108899_1" lane="108899_1" pos="99.09"/>
    <e1Detector file="e1output.xml" freq="5" friendlyPos="x" id="e1det_108899_2" lane="108899_2" pos="99.09"/>
    <e1Detector file="e1output.xml" freq="5" friendlyPos="x" id="e1det_108899_3" lane="108899_3" pos="99.09"/>
    <e1Detector file="e1output.xml" freq="5" friendlyPos="x" id="e1det_4684710_0" lane="4684710_0" pos="81.02"/>
    <e1Detector file="e1output.xml" freq="5" friendlyPos="x" id="e1det_4684710_1" lane="4684710_1" pos="81.02"/>
    <e1Detector file="e1output.xml" freq="5" friendlyPos="x" id="e1det_4684710_2" lane="4684710_2" pos="81.02"/>
    <e1Detector file="e1output.xml" freq="5" friendlyPos="x" id="e1det_4684710_3" lane="4684710_3" pos="81.02"/>
    <e1Detector file="e1output.xml" freq="5" friendlyPos="x" id="e1det_-30013725_0" lane="-30013725_0" pos="200.65"/>
    <e1Detector file="e1output.xml" freq="5" friendlyPos="x" id="e1det_-30013725_1" lane="-30013725_1" pos="200.65"/>
    <e1Detector file="e1output.xml" freq="5" friendlyPos="x" id="e1det_-30013725_2" lane="-30013725_2" pos="200.65"/>
    <e1Detector file="e1output.xml" freq="5" friendlyPos="x" id="e1det_-30013725_3" lane="-30013725_3" pos="200.65"/>
    <e1Detector file="e1output.xml" freq="5" friendlyPos="x" id="e1det_-30013726_0" lane="-30013726_0" pos="84.27"/>
    <e1Detector file="e1output.xml" freq="5" friendlyPos="x" id="e1det_-30013726_1" lane="-30013726_1" pos="84.27"/>
    <e1Detector file="e1output.xml" freq="5" friendlyPos="x" id="e1det_108738_0" lane="108738_0" pos="142.79000000000002"/>
    <e1Detector file="e1output.xml" freq="5" friendlyPos="x" id="e1det_108738_1" lane="108738_1" pos="142.79000000000002"/>
    <e1Detector file="e1output.xml" freq="5" friendlyPos="x" id="e1det_108738_2" lane="108738_2" pos="142.79000000000002"/>
    <e1Detector file="e1output.xml" freq="5" friendlyPos="x" id="e1det_108738_3" lane="108738_3" pos="142.79000000000002"/>
    <e1Detector file="e1output.xml" freq="5" friendlyPos="x" id="e1det_108787_0" lane="108787_0" pos="79.38"/>