<additional xmlns:xsi="http://www.w3.org/2001/XMLSchema-instance" xsi:noNamespaceSchemaLocation="http://sumo.dlr.de/xsd/additional_file.xsd">
    <laneAreaDetector file="e2output.xml" freq="5" friendlyPos="x" id="e2det_-107831_0" lane="-107831_0" length="200" pos="31.469999999999988"/>
    <laneAreaDetector file="e2output.xml" freq="5" friendlyPos="x" id="e2det_-107831_1" lane="-107831_1" length="200" pos="31.469999999999988"/>
    <laneAreaDetector file="e2output.xml" freq="5" friendlyPos="x" id="e2det_-7204470_0" lane="-7204470_0" length="200" pos="240.82999999999998"/>
    <laneAreaDetector file="e2output.xml" freq="5" friendlyPos="x" id="e2det_-7204470_1" lane="-7204470_1" length="200" pos="240.82999999999998"/>
    <laneAreaDetector file="e2output.xml" freq="5" friendlyPos="x" id="e2det_-7204470_2" lane="-7204470_2" length="200" pos="240.82999999999998"/>
    <laneAreaDetector file="e2output.xml" freq="5" friendlyPos="x" id="e2det_-7204470_3" lane="-7204470_3" length="200" pos="240.82999999999998"/>
    <laneAreaDetector file="e2output.xml" freq="5" friendlyPos="x" id="e2det_108009_0" lane="108009_0" length="200" pos="131.40000000000003"/>
    <laneAreaDetector file="e2output.xml" freq="5" friendlyPos="x" id="e2det_108009_1" lane="108009_1" length="200" pos="131.40000000000003"/>
    <laneAreaDetector file="e2output.xml" freq="5" friendlyPos="x" id="e2det_7204482_0" lane="7204482_0" length="168.41000000000003" pos="0"/>
    <laneAreaDetector file="e2output.xml" freq="5" friendlyPos="x" id="e2det_7204482_1" lane="7204482_1" length="168.41000000000003" pos="0"/>
    <laneAreaDetector file="e2output.xml" freq="5" friendlyPos="x" id="e2det_7204482_2" lane="7204482_2" length="168.41000000000003" pos="0"/>
    <laneAreaDetector file="e2output.xml" freq="5" friendlyPos="x" id="e2det_7204482_3" lane="7204482_3" length="168.41000000000003" pos="0"/>
    <laneAreaDetector file="e2output.xml" freq="5" friendlyPos="x" id="e2det_-107978_0" lane="-107978_0" length="104.11" pos="2.831068712794149e-15"/>
    <laneAreaDetector file="e2output.xml" freq="5" friendlyPos="x" id="e2det_-107978_1" lane="-107978_1" length="104.11" pos="2.831068712794149e-15"/>
    <laneAreaDetector file="e2output.xml" freq="5" friendlyPos="x" id="e2det_-107978_2" lane="-107978_2" length="104.11" pos="2.831068712794149e-15"/>
    <laneAreaDetector file="e2output.xml" freq="5" friendlyPos="x" id="e2det_-107978_3" lane="-107978_3" length="104.11" pos="2.831068712794149e-15"/>
    <laneAreaDetector file="e2output.xml" freq="5" friendlyPos="x" id="e2det_-108026_0" lane="-108026_0" length="200" pos="7.559999999999991"/>
    <laneAreaDetector file="e2output.xml" freq="5" friendlyPos="x" id="e2det_-108026_1" lane="-108026_1" length="200" pos="7.559999999999991"/>
    <laneAreaDetector file="e2output.xml" freq="5" friendlyPos="x" id="e2det_11034280_0" lane="11034280_0" length="200" pos="45.749999999999986"/>
    <laneAreaDetector file="e2output.xml" freq="5" friendlyPos="x" id="e2det_11034280_1" lane="11034280_1" length="200" pos="45.749999999999986"/>
    <laneAreaDetector file="e2output.xml" freq="5" friendlyPos="x" id="e2det_11034280_2" lane="11034280_2" length="200" pos="45.749999999999986"/>
    <laneAreaDetector file="e2output.xml" freq="5" friendlyPos="x" id="e2det_11034280_3" lane="11034280_3" length="200" pos="45.749999999999986"/>
    <laneAreaDetector file="e2output.xml" freq="5" friendlyPos="x" id="e2det_-108388_0" lane="-108388_0" length="175.97" pos="0"/>
    <laneAreaDetector file="e2output.xml" freq="5" friendlyPos="x" id="e2det_-108388_1" lane="-108388_1" length="175.97" pos="0"/>
    <laneAreaDetector file="e2output.xml" freq="5" friendlyPos="x" id="e2det_-108388_2" lane="-108388_2" length="175.97" pos="0"/>
    <laneAreaDetector file="e2output.xml" freq="5" friendlyPos="x" id="e2det_-108388_3" lane="-108388_3" length="175.97" pos="0"/>
    <laneAreaDetector file="e2output.xml" freq="5" friendlyPos="x" id="e2det_-7204446_0" lane="-7204446_0" length="200" pos="70.46000000000002"/>
    <laneAreaDetector file="e2output.xml" freq="5" friendlyPos="x" id="e2det_-7204446_1" lane="-7204446_1" length="200" pos="70.46000000000002"/>
    <laneAreaDetector file="e2output.xml" freq="5" friendlyPos="x" id="e2det_-7204446_2" lane="-7204446_2" length="200" pos="70.46000000000002"/>
    <laneAreaDetector file="e2output.xml" freq="5" friendlyPos="x" id="e2det_-7204446_3" lane="-7204446_3" length="200" pos="70.46000000000002"/>
    <laneAreaDetector file="e2output.xml" freq="5" friendlyPos="x" id="e2det_108429_0" lane="108429_0" length="122.11" pos="2.831068712794149e-15"/>
    <laneAreaDetector file="e2output.xml" freq="5" friendlyPos="x" id="e2det_108429_1" lane="108429_1" length="122.11" pos="2.831068712794149e-15"/>
    <laneAreaDetector file="e2output.xml" freq="5" friendlyPos="x" id="e2det_108429_2" lane="108429_2" length="122.11" pos="2.831068712794149e-15"/>
    <laneAreaDetector file="e2output.xml" freq="5" friendlyPos="x" id="e2det_108429_3" lane="108429_3" length="122.11" pos="2.831068712794149e-15"/>
    <laneAreaDetector file="e2output.xml" freq="5" friendlyPos="x" id="e2det_108537_0" lane="108537_0" length="137.08" pos="0"/>
    <laneAreaDetector file="e2output.xml" freq="5" friendlyPos="x" id="e2det_108537_1" lane="108537_1" length="137.08" pos="0"/>
    <laneAreaDetector file="e2output.xml" freq="5" friendlyPos="x" id="e2det_108537_2" lane="108537_2" length="137.08" pos="0"/>
    <laneAreaDetector file="e2output.xml" freq="5" friendlyPos="x" id="e2det_108537_3" lane="108537_3" length="137.08" pos="0"/>
    <laneAreaDetector file="e2output.xml" freq="5" friendlyPos="x" id="e2det_-108622_0" lane="-108622_0" length="118.41" pos="2.831068712794149e-15"/>
    <laneAreaDetector file="e2output.xml" freq="5" friendlyPos="x" id="e2det_-108622_1" lane="-108622_1" length="118.41" pos="2.831068712794149e-15"/>
    <laneAreaDetector file="e2output.xml" freq="5" friendlyPos="x" id="e2det_-108622_2" lane="-108622_2" length="118.41" pos="2.831068712794149e-15"/>
    <laneAreaDetector file="e2output.xml" freq="5" friendlyPos="x" id="e2det_-108622_3" lane="-108622_3" length="118.41" pos="2.831068712794149e-15"/>
    <laneAreaDetector file="e2output.xml" freq="5" friendlyPos="x" id="e2det_-2809289_0" lane="-2809289_0" length="128.14000000000001" pos="0"/>
    <laneAreaDetector file="e2output.xml" freq="5" friendlyPos="x" id="e2det_-2809289_1" lane="-2809289_1" length="128.14000000000001" pos="0"/>
    <laneAreaDetector file="e2output.xml" freq="5" friendlyPos="x" id="e2det_-2809289_2" lane="-2809289_2" length="128.14000000000001" pos="0"/>
    <laneAreaDetector file="e2output.xml" freq="5" friendlyPos="x" id="e2det_-2809289_3" lane="-2809289_3" length="128.14000000000001" pos="0"/>
    <laneAreaDetector file="e2output.xml" freq="5" friendlyPos="x" id="e2det_30013725_0" lane="30013725_0" length="198.79000000000002" pos="0"/>
    <laneAreaDetector file="e2output.xml" freq="5" friendlyPos="x" id="e2det_30013725_1" lane="30013725_1" length="198.79000000000002" pos="0"/>
    <laneAreaDetector file="e2output.xml" freq="5" friendlyPos="x" id="e2det_30013725_2" lane="30013725_2" length="198.79000000000002" pos="0"/>
    <laneAreaDetector file="e2output.xml" freq="5" friendlyPos="x" id="e2det_30013725_3" lane="30013725_3" length="198.79000000000002" pos="0"/>
    <laneAreaDetector file="e2output.xml" freq="5" friendlyPos="x" id="e2det_5066262_0" lane="5066262_0" length="200" pos="290.77000000000004"/>
    <laneAreaDetector file="e2output.xml" freq="5" friendlyPos="x" id="e2det_5066262_1" lane="5066262_1" length="200" pos="290.77000000000004"/>
    <laneAreaDetector file="e2output.xml" freq="5" friendlyPos="x" id="e2det_5066262_2" lane="5066262_2" length="200" pos="290.77000000000004"/>
    <laneAreaDetector file="e2output.xml" freq="5" friendlyPos="x" id="e2det_5066262_3" lane="5066262_3" length="200" pos="290.77000000000004"/>
    <laneAreaDetector file="e2output.xml" freq="5" friendlyPos="x" id="e2det_-109295_0" lane="-109295_0" length="0.0" pos="0"/>
    <laneAreaDetector file="e2output.xml" freq="5" friendlyPos="x" id="e2det_-109295_1" lane="-109295_1" length="0.0" pos="0"/>
    <laneAreaDetector file="e2output.xml" freq="5" friendlyPos="x" id="e2det_-109295_2" lane="-109295_2" length="0.0" pos="0"/>
    <laneAreaDetector file="e2output.xml" freq="5" friendlyPos="x" id="e2det_-109295_3" lane="-109295_3" length="0.0" pos="0"/>
    <laneAreaDetector file="e2output.xml" freq="5" friendlyPos="x" id="e2det_5353633_0" lane="5353633_0" length="102.66" pos="2.831068712794149e-15"/>
    <laneAreaDetector file="e2output.xml" freq="5" friendlyPos="x" id="e2det_5353633_1" lane="5353633_1" length="102.66" pos="2.831068712794149e-15"/>
    <laneAreaDetector file="e2output.xml" freq="5" friendlyPos="x" id="e2det_5353633_2" lane="5353633_2" length="102.66" pos="2.831068712794149e-15"/>
    <laneAreaDetector file="e2output.xml" freq="5" friendlyPos="x" id="e2det_5353633_3" lane="5353633_3" length="102.66" pos="2.831068712794149e-15"/>
    <laneAreaDetector file="e2output.xml" freq="5" friendlyPos="x" id="e2det_7171584_0" lane="7171584_0" length="200" pos="49.85000000000001"/>
    <laneAreaDetector file="e2output.xml" freq="5" friendlyPos="x" id="e2det_7171584_1" lane="7171584_1" length="200" pos="49.85000000000001"/>
    <laneAreaDetector file="e2output.xml" freq="5" friendlyPos="x" id="e2det_-109359_0" lane="-109359_0" length="51.839999999999996" pos="2.831068712794149e-15"/>
    <laneAreaDetector file="e2output.xml" freq="5" friendlyPos="x" id="e2det_-109359_1" lane="-109359_1" length="51.839999999999996" pos="2.831068712794149e-15"/>
    <laneAreaDetector file="e2output.xml" freq="5" friendlyPos="x" id="e2det_-109360_0" lane="-109360_0" length="200" pos="314.89000000000004"/>
    <laneAreaDetector file="e2output.xml" freq="5" friendlyPos="x" id="e2det_-109360_1" lane="-109360_1" length="200" pos="314.89000000000004"/>
    <laneAreaDetector file="e2output.xml" freq="5" friendlyPos="x" id="e2det_-109360_2" lane="-109360_2" length="200" pos="314.89000000000004"/>
    <laneAreaDetector file="e2output.xml" freq="5" friendlyPos="x" id="e2det_-109360_3" lane="-109360_3" length="200" pos="314.89000000000004"/>
    <laneAreaDetector file="e2output.xml" freq="5" friendlyPos="x" id="e2det_9910076_0" lane="9910076_0" length="200" pos="15.49999999999999"/>
    <laneAreaDetector file="e2output.xml" freq="5" friendlyPos="x" id="e2det_9910076_1" lane="9910076_1" length="200" pos="15.49999999999999"/>
    <laneAreaDetector file="e2output.xml" freq="5" friendlyPos="x" id="e2det_9910076_2" lane="9910076_2" length="200" pos="15.49999999999999"/>
    <laneAreaDetector file="e2output.xml" freq="5" friendlyPos="x" id="e2det_9910076_3" lane="9910076_3" length="200" pos="15.49999999999999"/>
    <laneAreaDetector file="e2output.xml" freq="5" friendlyPos="x" id="e2det_-109545_0" lane="-109545_0" length="200" pos="16.100000000000012"/>
    <laneAreaDetector file="e2output.xml" freq="5" friendlyPos="x" id="e2det_-109545_1" lane="-109545_1" length="200" pos="16.100000000000012"/>
    <laneAreaDetector file="e2output.xml" freq="5" friendlyPos="x" id="e2det_-109545_2" lane="-109545_2" length="200" pos="16.100000000000012"/>
    <laneAreaDetector file="e2output.xml" freq="5" friendlyPos="x" id="e2det_-109545_3" lane="-109545_3" length="200" pos="16.100000000000012"/>
    <laneAreaDetector file="e2output.xml" freq="5" friendlyPos="x" id="e2det_109603_0" lane="109603_0" length="200" pos="44.17999999999999"/>
    <laneAreaDetector file="e2output.xml" freq="5" friendlyPos="x" id="e2det_109603_1" lane="109603_1" length="200" pos="44.17999999999999"/>
    <laneAreaDetector file="e2output.xml" freq="5" friendlyPos="x" id="e2det_109627_0" lane="109627_0" length="117.72" pos="2.831068712794149e-15"/>
    <laneAreaDetector file="e2output.xml" freq="5" friendlyPos="x" id="e2det_109627_1" lane="109627_1" length="117.72" pos="2.831068712794149e-15"/>
    <laneAreaDetector file="e2output.xml" freq="5" friendlyPos="x" id="e2det_109627_2" lane="109627_2" length="117.72" pos="2.831068712794149e-15"/>
    <laneAreaDetector file="e2output.xml" freq="5" friendlyPos="x" id="e2det_109627_3" lane="109627_3" length="117.72" pos="2.831068712794149e-15"/>
    <laneAreaDetector file="e2output.xml" freq="5" friendlyPos="x" id="e2det_-109835_0" lane="-109835_0" length="67.64999999999999" pos="2.831068712794149e-15"/>
    <laneAreaDetector file="e2output.xml" freq="5" friendlyPos="x" id="e2det_-109835_1" lane="-109835_1" length="67.64999999999999" pos="2.831068712794149e-15"/>
    <laneAreaDetector file="e2output.xml" freq="5" friendlyPos="x" id="e2det_-109836_0" lane="-109836_0" length="200" pos="93.04"/>
    <laneAreaDetector file="e2output.xml" freq="5" friendlyPos="x" id="e2det_-109836_1" lane="-109836_1" length="200" pos="93.04"/>
    <laneAreaDetector file="e2output.xml" freq="5" friendlyPos="x" id="e2det_-109836_2" lane="-109836_2" length="200" pos="93.04"/>
    <laneAreaDetector file="e2output.xml" freq="5" friendlyPos="x" id="e2det_-109836_3" lane="-109836_3" length="200" pos="93.04"/>
    <laneAreaDetector file="e2output.xml" freq="5" friendlyPos="x" id="e2det_5353566_0" lane="5353566_0" length="200" pos="180.35000000000002"/>
    <laneAreaDetector file="e2output.xml" freq="5" friendlyPos="x" id="e2det_5353566_1" lane="5353566_1" length="200" pos="180.35000000000002"/>
    <laneAreaDetector file="e2output.xml" freq="5" friendlyPos="x" id="e2det_5353566_2" lane="5353566_2" length="200" pos="180.35000000000002"/>
    <laneAreaDetector file="e2output.xml" freq="5" friendlyPos="x" id="e2det_5353566_3" lane="5353566_3" length="200" pos="180.35000000000002"/>
    <laneAreaDetector file="e2output.xml" freq="5" friendlyPos="x" id="e2det_-110000_0" lane="-110000_0" length="180.52" pos="0"/>
    <laneAreaDetector file="e2output.xml" freq="5" friendlyPos="x" id="e2det_-110000_1" lane="-110000_1" length="180.52" pos="0"/>
    <laneAreaDetector file="e2output.xml" freq="5" friendlyPos="x" id="e2det_-110000_2" lane="-110000_2" length="180.52" pos="0"/>
    <laneAreaDetector file="e2output.xml" freq="5" friendlyPos="x" id="e2det_-110000_3" lane="-110000_3" length="180.52" pos="0"/>
    <laneAreaDetector file="e2output.xml" freq="5" friendlyPos="x" id="e2det_-110021_0" lane="-110021_0" length="108.39999999999999" pos="2.831068712794149e-15"/>
    <laneAreaDetector file="e2output.xml" freq="5" friendlyPos="x" id="e2det_-110021_1" lane="-110021_1" length="108.39999999999999" pos="2.831068712794149e-15"/>
    <laneAreaDetector file="e2output.xml" freq="5" friendlyPos="x" id="e2det_110083_0" lane="110083_0" length="118.28" pos="2.831068712794149e-15"/>
    <laneAreaDetector file="e2output.xml" freq="5" friendlyPos="x" id="e2det_110083_1" lane="110083_1" length="118.28" pos="2.831068712794149e-15"/>
    <laneAreaDetector file="e2output.xml" freq="5" friendlyPos="x" id="e2det_110083_2" lane="110083_2" length="118.28" pos="2.831068712794149e-15"/>
    <laneAreaDetector file="e2output.xml" freq="5" friendlyPos="x" id="e2det_110083_3" lane="110083_3" length="118.28" pos="2.831068712794149e-15"/>
    <laneAreaDetector file="e2output.xml" freq="5" friendlyPos="x" id="e2det_-110025_0" lane="-110025_0" length="138.13000000000002" pos="0"/>
    <laneAreaDetector file="e2output.xml" freq="5" friendlyPos="x" id="e2det_-110025_1" lane="-110025_1" length="138.13000000000002" pos="0"/>
    <laneAreaDetector file="e2output.xml" freq="5" friendlyPos="x" id="e2det_-110025_2" lane="-110025_2" length="138.13000000000002" pos="0"/>
    <laneAreaDetector file="e2output.xml" freq="5" friendlyPos="x" id="e2det_-110025_3" lane="-110025_3" length="138.13000000000002" pos="0"/>
    <laneAreaDetector file="e2output.xml" freq="5" friendlyPos="x" id="e2det_-110026_0" lane="-110026_0" length="200" pos="50.66000000000001"/>
    <laneAreaDetector file="e2output.xml" freq="5" friendlyPos="x" id="e2det_-110026_1" lane="-110026_1" length="200" pos="50.66000000000001"/>
    <laneAreaDetector file="e2output.xml" freq="5" friendlyPos="x" id="e2det_-110026_2" lane="-110026_2" length="200" pos="50.66000000000001"/>
    <laneAreaDetector file="e2output.xml" freq="5" friendlyPos="x" id="e2det_-110026_3" lane="-110026_3" length="200" pos="50.66000000000001"/>
    <laneAreaDetector file="e2output.xml" freq="5" friendlyPos="x" id="e2det_110101_0" lane="110101_0" length="94.78999999999999" pos="2.831068712794149e-15"/>
    <laneAreaDetector file="e2output.xml" freq="5" friendlyPos="x" id="e2det_110101_1" lane="110101_1" length="94.78999999999999" pos="2.831068712794149e-15"/>
    <laneAreaDetector file="e2output.xml" freq="5" friendlyPos="x" id="e2det_110101_2" lane="110101_2" length="94.78999999999999" pos="2.831068712794149e-15"/>
    <laneAreaDetector file="e2output.xml" freq="5" friendlyPos="x" id="e2det_110101_3" lane="110101_3" length="94.78999999999999" pos="2.831068712794149e-15"/>
    <laneAreaDetector file="e2output.xml" freq="5" friendlyPos="x" id="e2det_6436449_0" lane="6436449_0" length="200" pos="186.97000000000003"/>
    <laneAreaDetector file="e2output.xml" freq="5" friendlyPos="x" id="e2det_6436449_1" lane="6436449_1" length="200" pos="186.97000000000003"/>
    <laneAreaDetector file="e2output.xml" freq="5" friendlyPos="x" id="e2det_6436449_2" lane="6436449_2" length="200" pos="186.97000000000003"/>
    <laneAreaDetector file="e2output.xml" freq="5" friendlyPos="x" id="e2det_6436449_3" lane="6436449_3" length="200" pos="186.97000000000003"/>
    <laneAreaDetector file="e2output.xml" freq="5" friendlyPos="x" id="e2det_-110180_0" lane="-110180_0" length="84.17" pos="2.831068712794149e-15"/>
    <laneAreaDetector file="e2output.xml" freq="5" friendlyPos="x" id="e2det_-110180_1" lane="-110180_1" length="84.17" pos="2.831068712794149e-15"/>
    <laneAreaDetector file="e2output.xml" freq="5" friendlyPos="x" id="e2det_-110180_2" lane="-110180_2" length="84.17" pos="2.831068712794149e-15"/>
    <laneAreaDetector file="e2output.xml" freq="5" friendlyPos="x" id="e2det_-110180_3" lane="-110180_3" length="84.17" pos="2.831068712794149e-15"/>
    <laneAreaDetector file="e2output.xml" freq="5" friendlyPos="x" id="e2det_-6408248_0" lane="-6408248_0" length="160.03" pos="0"/>
    <laneAreaDetector file="e2output.xml" freq="5" friendlyPos="x" id="e2det_-6408248_1" lane="-6408248_1" length="160.03" pos="0"/>
    <laneAreaDetector file="e2output.xml" freq="5" friendlyPos="x" id="e2det_-6408248_2" lane="-6408248_2" length="160.03" pos="0"/>
    <laneAreaDetector file="e2output.xml" freq="5" friendlyPos="x" id="e2det_-6408248_3" lane="-6408248_3" length="160.03" pos="0"/>
    <laneAreaDetector file="e2output.xml" freq="5" friendlyPos="x" id="e2det_110427_0" lane="110427_0" length="200" pos="141.07999999999998"/>
    <laneAreaDetector file="e2output.xml" freq="5" friendlyPos="x" id="e2det_110427_1" lane="110427_1" length="200" pos="141.07999999999998"/>
    <laneAreaDetector file="e2output.xml" freq="5" friendlyPos="x" id="e2det_110427_2" lane="110427_2" length="200" pos="141.07999999999998"/>
    <laneAreaDetector file="e2output.xml" freq="5" friendlyPos="x" id="e2det_110427_3" lane="110427_3" length="200" pos="141.07999999999998"/>
    <laneAreaDetector file="e2output.xml" freq="5" friendlyPos="x" id="e2det_3497264_0" lane="3497264_0" length="200" pos="46.11"/>
    <laneAreaDetector file="e2output.xml" freq="5" friendlyPos="x" id="e2det_3497264_1" lane="3497264_1" length="200" pos="46.11"/>
    <laneAreaDetector file="e2output.xml" freq="5" friendlyPos="x" id="e2det_3497264_2" lane="3497264_2" length="200" pos="46.11"/>
    <laneAreaDetector file="e2output.xml" freq="5" friendlyPos="x" id="e2det_3497264_3" lane="3497264_3" length="200" pos="46.11"/>
    <laneAreaDetector file="e2output.xml" freq="5" friendlyPos="x" id="e2det_-11034280_0" lane="-11034280_0" length="200" pos="45.989999999999995"/>
    <laneAreaDetector file="e2output.xml" freq="5" friendlyPos="x" id="e2det_-11034280_1" lane="-11034280_1" length="200" pos="45.989999999999995"/>
    <laneAreaDetector file="e2output.xml" freq="5" friendlyPos="x" id="e2det_-11034280_2" lane="-11034280_2" length="200" pos="45.989999999999995"/>
    <laneAreaDetector file="e2output.xml" freq="5" friendlyPos="x" id="e2det_-11034280_3" lane="-11034280_3" length="200" pos="45.989999999999995"/>
    <laneAreaDetector file="e2output.xml" freq="5" friendlyPos="x" id="e2det_-2798981_0" lane="-2798981_0" length="200" pos="40.040000000000006"/>
    <laneAreaDetector file="e2output.xml" freq="5" friendlyPos="x" id="e2det_-2798981_1" lane="-2798981_1" length="200" pos="40.040000000000006"/>
    <laneAreaDetector file="e2output.xml" freq="5" friendlyPos="x" id="e2det_-6332605_0" lane="-6332605_0" length="97.61" pos="2.831068712794149e-15"/>
    <laneAreaDetector file="e2output.xml" freq="5" friendlyPos="x" id="e2det_-6332605_1" lane="-6332605_1" length="97.61" pos="2.831068712794149e-15"/>
    <laneAreaDetector file="e2output.xml" freq="5" friendlyPos="x" id="e2det_7204415_0" lane="7204415_0" length="200" pos="56.040000000000006"/>
    <laneAreaDetector file="e2output.xml" freq="5" friendlyPos="x" id="e2det_7204415_1" lane="7204415_1" length="200" pos="56.040000000000006"/>
    <laneAreaDetector file="e2output.xml" freq="5" friendlyPos="x" id="e2det_7204415_2" lane="7204415_2" length="200" pos="56.040000000000006"/>
    <laneAreaDetector file="e2output.xml" freq="5" friendlyPos="x" id="e2det_7204415_3" lane="7204415_3" length="200" pos="56.040000000000006"/>
    <laneAreaDetector file="e2output.xml" freq="5" friendlyPos="x" id="e2det_-110444_0" lane="-110444_0" length="4.99" pos="1.6653345369377348e-16"/>
    <laneAreaDetector file="e2output.xml" freq="5" friendlyPos="x" id="e2det_-110444_1" lane="-110444_1" length="4.99" pos="1.6653345369377348e-16"/>
    <laneAreaDetector file="e2output.xml" freq="5" friendlyPos="x" id="e2det_-110444_2" lane="-110444_2" length="4.99" pos="1.6653345369377348e-16"/>
    <laneAreaDetector file="e2output.xml" freq="5" friendlyPos="x" id="e2det_-110444_3" lane="-110444_3" length="4.99" pos="1.6653345369377348e-16"/>
    <laneAreaDetector file="e2output.xml" freq="5" friendlyPos="x" id="e2det_110496_0" lane="110496_0" length="45.91" pos="2.831068712794149e-15"/>
    <laneAreaDetector file="e2output.xml" freq="5" friendlyPos="x" id="e2det_110496_1" lane="110496_1" length="45.91" pos="2.831068712794149e-15"/>
    <laneAreaDetector file="e2output.xml" freq="5" friendlyPos="x" id="e2det_110496_2" lane="110496_2" length="45.91" pos="2.831068712794149e-15"/>
    <laneAreaDetector file="e2output.xml" freq="5" friendlyPos="x" id="e2det_110496_3" lane="110496_3" length="45.91" pos="2.831068712794149e-15"/>
    <laneAreaDetector file="e2output.xml" freq="5" friendlyPos="x" id="e2det_4889825_0" lane="4889825_0" length="200" pos="21.640000000000004"/>
    <laneAreaDetector file="e2output.xml" freq="5" friendlyPos="x" id="e2det_4889825_1" lane="4889825_1" length="200" pos="21.640000000000004"/>
    <laneAreaDetector file="e2output.xml" freq="5" friendlyPos="x" id="e2det_-110613_0" lane="-110613_0" length="107.78999999999999" pos="2.831068712794149e-15"/>
    <laneAreaDetector file="e2output.xml" freq="5" friendlyPos="x" id="e2det_-110613_1" lane="-110613_1" length="107.78999999999999" pos="2.831068712794149e-15"/>
    <laneAreaDetector file="e2output.xml" freq="5" friendlyPos="x" id="e2det_-110614_0" lane="-110614_0" length="137.91000000000003" pos="0"/>
    <laneAreaDetector file="e2output.xml" freq="5" friendlyPos="x" id="e2det_-110614_1" lane="-110614_1" length="137.91000000000003" pos="0"/>
    <laneAreaDetector file="e2output.xml" freq="5" friendlyPos="x" id="e2det_-110614_2" lane="-110614_2" length="137.91000000000003" pos="0"/>
    <laneAreaDetector file="e2output.xml" freq="5" friendlyPos="x" id="e2det_-110614_3" lane="-110614_3" length="137.91000000000003" pos="0"/>
    <laneAreaDetector file="e2output.xml" freq="5" friendlyPos="x" id="e2det_110728_0" lane="110728_0" length="156.47" pos="0"/>
    <laneAreaDetector file="e2output.xml" freq="5" friendlyPos="x" id="e2det_110728_1" lane="110728_1" length="156.47" pos="0"/>
    <laneAreaDetector file="e2output.xml" freq="5" friendlyPos="x" id="e2det_110728_2" lane="110728_2" length="156.47" pos="0"/>
    <laneAreaDetector file="e2output.xml" freq="5" friendlyPos="x" id="e2det_110728_3" lane="110728_3" length="156.47" pos="0"/>
    <laneAreaDetector file="e2output.xml" freq="5" friendlyPos="x" id="e2det_-11714721_0" lane="-11714721_0" length="154.4" pos="0"/>
    <laneAreaDetector file="e2output.xml" freq="5" friendlyPos="x" id="e2det_-11714721_1" lane="-11714721_1" length="154.4" pos="0"/>
    <laneAreaDetector file="e2output.xml" freq="5" friendlyPos="x" id="e2det_-7179817_0" lane="-7179817_0" length="200" pos="30.939999999999987"/>
    <laneAreaDetector file="e2output.xml" freq="5" friendlyPos="x" id="e2det_-7179817_1" lane="-7179817_1" length="200" pos="30.939999999999987"/>
    <laneAreaDetector file="e2output.xml" freq="5" friendlyPos="x" id="e2det_-7179817_2" lane="-7179817_2" length="200" pos="30.939999999999987"/>
    <laneAreaDetector file="e2output.xml" freq="5" friendlyPos="x" id="e2det_-7179817_3" lane="-7179817_3" length="200" pos="30.939999999999987"/>
    <laneAreaDetector file="e2output.xml" freq="5" friendlyPos="x" id="e2det_7179805_0" lane="7179805_0" length="130.33" pos="0"/>
    <laneAreaDetector file="e2output.xml" freq="5" friendlyPos="x" id="e2det_7179805_1" lane="7179805_1" length="130.33" pos="0"/>
    <laneAreaDetector file="e2output.xml" freq="5" friendlyPos="x" id="e2det_7179805_2" lane="7179805_2" length="130.33" pos="0"/>
    <laneAreaDetector file="e2output.xml" freq="5" friendlyPos="x" id="e2det_7179805_3" lane="7179805_3" length="130.33" pos="0"/>
    <laneAreaDetector file="e2output.xml" freq="5" friendlyPos="x" id="e2det_-11714723_0" lane="-11714723_0" length="200" pos="10.77999999999999"/>
    <laneAreaDetector file="e2output.xml" freq="5" friendlyPos="x" id="e2det_-11714723_1" lane="-11714723_1" length="200" pos="10.77999999999999"/>
    <laneAreaDetector file="e2output.xml" freq="5" friendlyPos="x" id="e2det_-6436410_0" lane="-6436410_0" length="39.589999999999996" pos="2.831068712794149e-15"/>
    <laneAreaDetector file="e2output.xml" freq="5" friendlyPos="x" id="e2det_-6436410_1" lane="-6436410_1" length="39.589999999999996" pos="2.831068712794149e-15"/>
    <laneAreaDetector file="e2output.xml" freq="5" friendlyPos="x" id="e2det_-6436410_2" lane="-6436410_2" length="39.589999999999996" pos="2.831068712794149e-15"/>
    <laneAreaDetector file="e2output.xml" freq="5" friendlyPos="x" id="e2det_-6436410_3" lane="-6436410_3" length="39.589999999999996" pos="2.831068712794149e-15"/>
    <laneAreaDetector file="e2output.xml" freq="5" friendlyPos="x" id="e2det_3011699_0" lane="3011699_0" length="200" pos="6.7000000000000055"/>
    <laneAreaDetector file="e2output.xml" freq="5" friendlyPos="x" id="e2det_3011699_1" lane="3011699_1" length="200" pos="6.7000000000000055"/>
    <laneAreaDetector file="e2output.xml" freq="5" friendlyPos="x" id="e2det_3011699_2" lane="3011699_2" length="200" pos="6.7000000000000055"/>
    <laneAreaDetector file="e2output.xml" freq="5" friendlyPos="x" id="e2det_3011699_3" lane="3011699_3" length="200" pos="6.7000000000000055"/>
    <laneAreaDetector file="e2output.xml" freq="5" friendlyPos="x" id="e2det_-14020767_0" lane="-14020767_0" length="100.86" pos="2.831068712794149e-15"/>
    <laneAreaDetector file="e2output.xml" freq="5" friendlyPos="x" id="e2det_-14020767_1" lane="-14020767_1" length="100.86" pos="2.831068712794149e-15"/>
    <laneAreaDetector file="e2output.xml" freq="5" friendlyPos="x" id="e2det_-20110483_0" lane="-20110483_0" length="200" pos="388.58"/>
    <laneAreaDetector file="e2output.xml" freq="5" friendlyPos="x" id="e2det_-20110483_1" lane="-20110483_1" length="200" pos="388.58"/>
    <laneAreaDetector file="e2output.xml" freq="5" friendlyPos="x" id="e2det_14020766_0" lane="14020766_0" length="34.589999999999996" pos="2.831068712794149e-15"/>
    <laneAreaDetector file="e2output.xml" freq="5" friendlyPos="x" id="e2det_14020766_1" lane="14020766_1" length="34.589999999999996" pos="2.831068712794149e-15"/>
    <laneAreaDetector file="e2output.xml" freq="5" friendlyPos="x" id="e2det_-14070155_0" lane="-14070155_0" length="109.71" pos="2.831068712794149e-15"/>
    <laneAreaDetector file="e2output.xml" freq="5" friendlyPos="x" id="e2det_-14070155_1" lane="-14070155_1" length="109.71" pos="2.831068712794149e-15"/>
    <laneAreaDetector file="e2output.xml" freq="5" friendlyPos="x" id="e2det_-14663886_0" lane="-14663886_0" length="134.58" pos="0"/>
    <laneAreaDetector file="e2output.xml" freq="5" friendlyPos="x" id="e2det_-14663886_1" lane="-14663886_1" length="134.58" pos="0"/>
    <laneAreaDetector file="e2output.xml" freq="5" friendlyPos="x" id="e2det_-14663886_2" lane="-14663886_2" length="134.58" pos="0"/>
    <laneAreaDetector file="e2output.xml" freq="5" friendlyPos="x" id="e2det_-14663886_3" lane="-14663886_3" length="134.58" pos="0"/>
    <laneAreaDetector file="e2output.xml" freq="5" friendlyPos="x" id="e2det_13974855_0" lane="13974855_0" length="62.61" pos="2.831068712794149e-15"/>
    <laneAreaDetector file="e2output.xml" freq="5" friendlyPos="x" id="e2det_13974855_1" lane="13974855_1" length="62.61" pos="2.831068712794149e-15"/>
    <laneAreaDetector file="e2output.xml" freq="5" friendlyPos="x" id="e2det_13974855_2" lane="13974855_2" length="62.61" pos="2.831068712794149e-15"/>
    <laneAreaDetector file="e2output.xml" freq="5" friendlyPos="x" id="e2det_13974855_3" lane="13974855_3" length="62.61" pos="2.831068712794149e-15"/>
    <laneAreaDetector file="e2output.xml" freq="5" friendlyPos="x" id="e2det_-14228399_0" lane="-14228399_0" length="28.68" pos="0"/>
    <laneAreaDetector file="e2output.xml" freq="5" friendlyPos="x" id="e2det_-14228399_1" lane="-14228399_1" length="28.68" pos="0"/>