<?xml version="1.0" encoding="UTF-8"?>

<!-- generated on 2024-10-11 18:50:13 by Eclipse SUMO duarouter Version 1.20.0
<configuration xmlns:xsi="http://www.w3.org/2001/XMLSchema-instance" xsi:noNamespaceSchemaLocation="http://sumo.dlr.de/xsd/duarouterConfiguration.xsd">

    <input>
        <net-file value="data/sumo_networks/brookhaven-amesbury/brookhaven-amesbury_arterial.net.xml"/>
        <additional-files value="data/sumo_networks/brookhaven-amesbury/brookhaven-amesbury_truck_vtype.rou.xml"/>
        <route-files value="data/processed/brookhaven-amesbury/brookhaven-amesbury_truck.trips.xml"/>
    </input>

    <output>
        <output-file value="data/processed/brookhaven-amesbury/brookhaven-amesbury_truck.trips.xml.tmp"/>
        <vtype-output value="data/sumo_networks/brookhaven-amesbury/brookhaven-amesbury_truck_vtype.rou.xml"/>
        <alternatives-output value="NUL"/>
        <write-trips value="true"/>
    </output>

    <time>
        <begin value="28800.0"/>
        <end value="34200.0"/>
    </time>

    <report>
        <no-warnings value="true"/>
        <ignore-errors value="true"/>
        <no-step-log value="true"/>
    </report>

</configuration>
-->

<routes xmlns:xsi="http://www.w3.org/2001/XMLSchema-instance" xsi:noNamespaceSchemaLocation="http://sumo.dlr.de/xsd/routes_file.xsd">
    <vType id="truck" vClass="truck"/>
</routes>
