<?xml version="1.0" encoding="UTF-8"?>

<!-- generated on 2024-10-11 18:50:29.119108 by routeSampler.py UNKNOWN
<configuration>
    <route-files value="data/processed/brookhaven-amesbury/initial_route_file_truck.rou.xml"/>
    <turn-files value="data/processed/brookhaven-amesbury/turning_movements_truck.xml"/>
    <output-file value="data/sumo_networks/brookhaven-amesbury/brookhaven-amesbury_truck_routes.rou.xml"/>
    <prefix value="truck"/>
    <begin value="28800"/>
    <end value="34200"/>
    <total-count value="2350"/>
</configuration>
-->

<routes xmlns:xsi="http://www.w3.org/2001/XMLSchema-instance" xsi:noNamespaceSchemaLocation="http://sumo.dlr.de/xsd/routes_file.xsd">
<!-- begin="28800.0" end="29700.0" -->
    <vehicle id="truck28800_0" depart="28804.17">
        <route edges="-446577 446574 -30100748 -30100747 -10011231 -446584 -446608 446621 14660824 14050772 14050773 14051135 14050992"/>
    </vehicle>
    <vehicle id="truck28800_1" depart="28809.90">
        <route edges="-446591 -446577 446574 446552 446514 9796850 -446520"/>
    </vehicle>
    <vehicle id="truck28800_2" depart="28811.70">
        <route edges="446416 446465 -446481 -446494 -446493 -446486 -10010895 -10010820"/>
    </vehicle>
    <vehicle id="truck28800_3" depart="28811.79">
        <route edges="-446639 -446640 -446642 -10011025"/>
    </vehicle>
    <vehicle id="truck28800_4" depart="28816.30">
        <route edges="-11743068 -6088358 -7412 -7436 -7497 -446608 446621 14660824 -30080150"/>
    </vehicle>
    <vehicle id="truck28800_5" depart="28816.55">
        <route edges="9796670 30097066 30097067 446402 446420 446421 446445 9796843 446469 9796859 9796850 -446520 446527 446528"/>
    </vehicle>
    <vehicle id="truck28800_6" depart="28817.74">
        <route edges="-446481 -446494 -446493 -446525 446526 446512 446494 446481"/>
    </vehicle>
    <vehicle id="truck28800_7" depart="28820.22">
        <route edges="446661 446523 -446445 -446421 -446420 -446402 -30097067"/>
    </vehicle>
    <vehicle id="truck28800_8" depart="28822.85">
        <route edges="5378151 -5378127 20045698 20045699 446499 20040694 20040695 446477 446486 446493 -446512"/>
    </vehicle>
    <vehicle id="truck28800_9" depart="28823.88">
        <route edges="446032 13291670 13291693 446206 9796670 30097066"/>
    </vehicle>
    <vehicle id="truck28800_10" depart="28824.39">
        <route edges="446032 8041145 -5378156 -446388 -446425 -11382359 -446546"/>
    </vehicle>
    <vehicle id="truck28800_11" depart="28828.06">
        <route edges="20040662 10010820 10010895 -446477 446463 446454 446406 5378159 -446388 -446425"/>
    </vehicle>
    <vehicle id="truck28800_12" depart="28830.18">
        <route edges="-446455 -446420 -446402 -30097067"/>
    </vehicle>
    <vehicle id="truck28800_13" depart="28830.55">
        <route edges="-11743068 -6088358 -7412 -7436 -7497 -446608 446621 14660824 -30080150"/>
    </vehicle>
    <vehicle id="truck28800_14" depart="28832.89">
        <route edges="-5378156 -446388 -446425 -9085879 -9085266 -10923916 20040694 20040695"/>
    </vehicle>
    <vehicle id="truck28800_15" depart="28833.31">
        <route edges="446453 -10923916 20040694 20040695 446477 446486 446493 446494 446481 446473 446482 -446483"/>
    </vehicle>
    <vehicle id="truck28800_16" depart="28835.48">
        <route edges="446666 -5625788 -7206707"/>
    </vehicle>
    <vehicle id="truck28800_17" depart="28842.27">
        <route edges="30097067 446402 446420 446421"/>
    </vehicle>
    <vehicle id="truck28800_18" depart="28846.28">
        <route edges="446463 446454 446416 446465 -446481 -446494 -446512 -446526 -446545 446569 -446593 10010939"/>
    </vehicle>
    <vehicle id="truck28800_19" depart="28846.64">
        <route edges="7681 446629 446621 14660824"/>
    </vehicle>
    <vehicle id="truck28800_20" depart="28849.29">
        <route edges="446523 9796843 446469 9796859 9796850 9796840 9796823 9796771 9796780"/>
    </vehicle>
    <vehicle id="truck28800_21" depart="28857.04">
        <route edges="446584 10011231 30100747 30100748 446552 -446513 -446507 -446535 -10011188"/>
    </vehicle>
    <vehicle id="truck28800_22" depart="28859.14">
        <route edges="446538 -9796823 -9796840 -9796850 -9796859 -446469 -9796843 -446445 -446421 -446420 -446402 -30097067 -30097066 -9796670 -446206"/>
    </vehicle>
    <vehicle id="truck28800_23" depart="28859.85">
        <route edges="20045699 446499 20040694 20040695 446463 446454 446406 446380"/>
    </vehicle>
    <vehicle id="truck28800_24" depart="28860.37">
        <route edges="-446207 -446380 5378159 -446388 -446425"/>
    </vehicle>
    <vehicle id="truck28800_25" depart="28867.62">
        <route edges="446661 446523 -446445 -446421 -446420 -446402 -30097067"/>
    </vehicle>
    <vehicle id="truck28800_26" depart="28869.26">
        <route edges="20045751 20045752 -14113321 -14113302 -14113299 -14113298 -14113276"/>
    </vehicle>
    <vehicle id="truck28800_27" depart="28874.52">
        <route edges="-446588 446589 -446590 -446591 446576"/>
    </vehicle>
    <vehicle id="truck28800_28" depart="28876.81">
        <route edges="-446207 -446380 5378159 -446388 -446425 -9085879"/>
    </vehicle>
    <vehicle id="truck28800_29" depart="28876.96">
        <route edges="-11743068 -6088358 -7412 -7436 -7497 -446608 446621 14660824 -30080150"/>
    </vehicle>
    <vehicle id="truck28800_30" depart="28882.42">
        <route edges="-446207 -446380 -446406 446416 446465 -446481 -446494 -446512 446518 446539 -446575"/>
    </vehicle>
    <vehicle id="truck28800_31" depart="28889.50">
        <route edges="-7497 446584 10011231 30100747 30100748 -446574 446577 446591 446601 446603 446614 10011046"/>
    </vehicle>
    <vehicle id="truck28800_32" depart="28893.70">
        <route edges="446465 -446481 -446494 -446493 -446486 -446477 -20040695 -20040694 -446499 -20045699 -20045698 5378127 -5378151"/>
    </vehicle>
    <vehicle id="truck28800_33" depart="28895.94">
        <route edges="7829 446661 446523 9796843 446469 9796859 9796850 -446520 -446561 30100747"/>
    </vehicle>
    <vehicle id="truck28800_34" depart="28899.57">
        <route edges="-446592 446593 -446569 446545 446525 -446486 -10010895 -10010820"/>
    </vehicle>
    <vehicle id="truck28800_35" depart="28901.91">
        <route edges="20040662 10010820 10010895"/>
    </vehicle>
    <vehicle id="truck28800_36" depart="28903.35">
        <route edges="446648 446624 446619 30145282 30145283 446593 -446569 446545 446526 446512 446494 446481 -446465 -446416 -446454 -446463"/>
    </vehicle>
    <vehicle id="truck28800_37" depart="28905.21">
        <route edges="-446613 -10011046 -446614 -446603 -446601 -446591 -446577 446574 446552 446514 9796850 9796840 9796823"/>
    </vehicle>
    <vehicle id="truck28800_38" depart="28905.98">
        <route edges="446643 446628 446607 446589 -446590 446601 446603 -10011087 -10011070 30100732 30100733"/>
    </vehicle>
    <vehicle id="truck28800_39" depart="28908.51">
        <route edges="-20049904 446563 446569"/>
    </vehicle>
    <vehicle id="truck28800_40" depart="28911.87">
        <route edges="446666 446662 14677748 10011025 446642 446640 446639 30119450 30119451 446635 20045795 20045796 446632 446629 446621 14660824 14050772 14050773 14051135"/>
    </vehicle>
    <vehicle id="truck28800_41" depart="28912.20">
        <route edges="-446207 -446380 -446406 -446454 -446463 -20040695 -20040694 10923916"/>
    </vehicle>
    <vehicle id="truck28800_42" depart="28914.74">
        <route edges="30097067 446402 446420 446421"/>
    </vehicle>
    <vehicle id="truck28800_43" depart="28920.97">
        <route edges="30097795 7206730 446651 446626 30145282 30145283 446593 -446569 446545 446526 446512 446494 446481 446466 446427"/>
    </vehicle>
    <vehicle id="truck28800_44" depart="28923.14">
        <route edges="20040662 10010820 10010895 -446477 446463 446454 446406 446380 446207"/>
    </vehicle>
    <vehicle id="truck28800_45" depart="28923.20">
        <route edges="9066247 12189744 9085067 5378127 446546 11382359"/>
    </vehicle>
    <vehicle id="truck28800_46" depart="28925.34">
        <route edges="446666 -5625788 -7206707"/>
    </vehicle>
    <vehicle id="truck28800_47" depart="28925.42">
        <route edges="-14660824 -446621 446608 7497 7436 7412 6088358 11743068"/>
    </vehicle>
    <vehicle id="truck28800_48" depart="28925.80">
        <route edges="9066247 12189744 9085067 5378127 446546 11382359"/>
    </vehicle>
    <vehicle id="truck28800_49" depart="28926.10">
        <route edges="30100730 10011118 446574 -30100748 -30100747 -10011231 -446584 -446608 446621"/>
    </vehicle>
    <vehicle id="truck28800_50" depart="28926.77">
        <route edges="-446505 -9796771 -9796823 -9796840 -9796850 -446514 -446552 -446574 446577 446591 446590 446586 10011214"/>
    </vehicle>
    <vehicle id="truck28800_51" depart="28933.80">
        <route edges="446420 446421 446445 9796843 446469 9796859 9796850 -446520 -446519 446514 -9796859 -446469 -9796843 -446445 -446421 -446420 -446402 -7204532 -30097070 -30097069 -446492 -446517 -2489981"/>
    </vehicle>
    <vehicle id="truck28800_52" depart="28934.93">
        <route edges="-446590 446601 446603 -10011087 -10011070 30100732"/>
    </vehicle>
    <vehicle id="truck28800_53" depart="28936.51">
        <route edges="-446639 -446640 -446642 -10011025 -14677748 -446662"/>
    </vehicle>
    <vehicle id="truck28800_54" depart="28937.29">
        <route edges="446512 -446493 -446486 -446477 -20040695 -20040694 -446499 -20045699 -20045698 -9085067 -12189744 -9066247"/>
    </vehicle>
    <vehicle id="truck28800_55" depart="28938.02">
        <route edges="9066247 12189744 9085067 5378127 446546 11382359"/>
    </vehicle>
    <vehicle id="truck28800_56" depart="28938.93">
        <route edges="-446207 -446380 5378159 -446388 -446425 -9085879"/>
    </vehicle>
    <vehicle id="truck28800_57" depart="28939.72">
        <route edges="-9796823 -9796840 -9796850 -9796859 -446469 -9796843 -446445 -446421 -446420 -446402 -30097067 -30097066 -9796670 -446206 -13291693 -13291670"/>
    </vehicle>
    <vehicle id="truck28800_58" depart="28940.54">
        <route edges="446588 446571 -446572 10011214 10011188 446535 446507 446513 446519 446527 446534"/>
    </vehicle>
    <vehicle id="truck28800_59" depart="28947.29">
        <route edges="446549 -446518 -446526 -446545 -446544 -20040662 -20040661 -20045699 -20045698 -9085067 -12189744"/>
    </vehicle>
    <vehicle id="truck28800_60" depart="28947.84">
        <route edges="30097067 446402 446420 446421"/>
    </vehicle>
    <vehicle id="truck28800_61" depart="28949.66">
        <route edges="446032 8041145 -5378156 -446388 -446425"/>
    </vehicle>
    <vehicle id="truck28800_62" depart="28953.80">
        <route edges="-30100747 446561 446520 -9796850 -9796859 -446469 -9796843"/>
    </vehicle>
    <vehicle id="truck28800_63" depart="28954.51">
        <route edges="-446416 -446454 -446463 -20040695 -20040694 -446499 -20045699 -20045698 -9085067 -12189744"/>
    </vehicle>
    <vehicle id="truck28800_64" depart="28957.83">
        <route edges="12189744 9085067 20045698 20045699 446499 20040694 20040695 446477 446486 446493 446494 446481 446466"/>
    </vehicle>
    <vehicle id="truck28800_65" depart="28958.75">
        <route edges="446493 446494 446481 -446465 7210879"/>
    </vehicle>
    <vehicle id="truck28800_66" depart="28960.23">
        <route edges="5378127 446546 11382359 446425 446388 5378156 -8041145 -446032 -446008"/>
    </vehicle>
    <vehicle id="truck28800_67" depart="28960.69">
        <route edges="-30100732 -10011144 -446605 -446610 446609 446566 446548"/>
    </vehicle>
    <vehicle id="truck28800_68" depart="28962.52">
        <route edges="-20054939 -9796780 -9796771 -9796823 -9796840 -9796850 -9796859 -446469 -9796843 -446445 -446421 -446420 -446402 -7204532 -30097070 -30097069 -446492 -446491 -446482 -446473 -446481 -446494 -446493 -446486 -10010895"/>
    </vehicle>
    <vehicle id="truck28800_69" depart="28963.11">
        <route edges="-446207 -446380 5378159 -446388 -446425 -9085879"/>
    </vehicle>
    <vehicle id="truck28800_70" depart="28963.29">
        <route edges="9066247 12189744 9085067 20045698 20045699 446499 20040694 20040695 446463 446454 446406 446380 -446206 -13291693 -13291670"/>
    </vehicle>
    <vehicle id="truck28800_71" depart="28963.44">
        <route edges="-446505 -9796771 -9796823 -9796840 -446520 -446519"/>
    </vehicle>
    <vehicle id="truck28800_72" depart="28963.74">
        <route edges="-446426 -446466 -446481 -446494 -446512 -446526 -446545 446569 -446593 -30145283 -30145282 -446626 -446651 -7206730"/>
    </vehicle>
    <vehicle id="truck28800_73" depart="28966.62">
        <route edges="-11382371 446388 -5378159 446380 446207"/>
    </vehicle>
    <vehicle id="truck28800_74" depart="28968.34">
        <route edges="30097067 446402 446420 446421"/>
    </vehicle>
    <vehicle id="truck28800_75" depart="28971.62">
        <route edges="-446465 -446416 -446454 -446463 446477 446486 446493 -446512 446518 446539 -446575"/>
    </vehicle>
    <vehicle id="truck28800_76" depart="28981.46">
        <route edges="446519 446520 9796840 9796823 -446538 -446537"/>
    </vehicle>
    <vehicle id="truck28800_77" depart="28984.49">
        <route edges="-9796771 -9796823 -9796840 -9796850 -446514 -446552 -446574 446577 446591 446590 -446589 -446607 -446628 10011302"/>
    </vehicle>
    <vehicle id="truck28800_78" depart="28984.63">
        <route edges="-20049904 446563 446545 446526 446518 446539 2489981 446517 446492 30097069 30097070 7204532 446402 446420 446421 446445 9796843 446469 9796859 9796850 9796840 9796823 9796771"/>
    </vehicle>
    <vehicle id="truck28800_79" depart="28985.78">
        <route edges="-20045796 -20045795 -446635 -30119451 -30119450 -446639 -446640 -446642 -10011025 -14677748 -446662 -5625788 -7206707"/>
    </vehicle>
    <vehicle id="truck28800_80" depart="28987.10">
        <route edges="20040661 20040662 10010820 10010895 -446477 446463 446454 446406 5378159 -446388 -446425 -9085879"/>
    </vehicle>
    <vehicle id="truck28800_81" depart="28988.92">
        <route edges="-446481 -446494 -446493 -446486 -446477 -20040695 -20040694 -446499 -20045699 -20045698 -9085067 -12189744 -9066247"/>
    </vehicle>
    <vehicle id="truck28800_82" depart="28993.45">
        <route edges="446589 446586 10011214 10011188 446535 446507 446497 -446469 -9796843 -446445 -446421 -446420 -446402 -30097067 -30097066 -9796670 446207"/>
    </vehicle>
    <vehicle id="truck28800_83" depart="28999.09">
        <route edges="5378151 446546 11382359 -9085879"/>
    </vehicle>
    <vehicle id="truck28800_84" depart="28999.77">
        <route edges="9066247 12189744 9085067 5378127 446546 11382359"/>
    </vehicle>
    <vehicle id="truck28800_85" depart="29002.14">
        <route edges="-446207 -446380 -446406 446416 446465 446473"/>
    </vehicle>
    <vehicle id="truck28800_86" depart="29006.33">
        <route edges="9066247 12189744 9085067 5378127 446546 11382359"/>
    </vehicle>
    <vehicle id="truck28800_87" depart="29007.01">
        <route edges="-11743068 -6088358 -7412 -7436 -7497 -446608 446621 14660824 14050772"/>
    </vehicle>
    <vehicle id="truck28800_88" depart="29007.97">
        <route edges="5378159 5378156 -8041145 -446032"/>
    </vehicle>
    <vehicle id="truck28800_89" depart="29008.99">
        <route edges="30080155 -446632"/>
    </vehicle>
    <vehicle id="truck28800_90" depart="29014.36">
        <route edges="-446483 -446473 -446481 -446494 -446493 -446486 -446477 -20040695"/>
    </vehicle>
    <vehicle id="truck28800_91" depart="29018.17">
        <route edges="20045698 20045699 446499 20040694 20040695 446463 446454 446406 5378159 5378156 -8041145"/>
    </vehicle>
    <vehicle id="truck28800_92" depart="29018.85">
        <route edges="10011188 446535 446507 446497 -446469 -9796843 -446445 -446421 -446420 -446402 -30097067 -30097066 -9796670 -446206 -13291693 -13291670 -446032 -446008 -445964"/>
    </vehicle>
    <vehicle id="truck28800_93" depart="29020.81">
        <route edges="-446591 -446577 446574 446552 446514 9796850 -446520"/>
    </vehicle>
    <vehicle id="truck28800_94" depart="29021.76">
        <route edges="446661 446523 -446445 -446421 -446420 -446402 -30097067"/>
    </vehicle>
    <vehicle id="truck28800_95" depart="29023.64">
        <route edges="-446207 -446380 -446406 446416 446465 -446481 -446494 -446512 446518 446539 2489981"/>
    </vehicle>
    <vehicle id="truck28800_96" depart="29024.70">
        <route edges="14113299 14113221 -14113313 -14113317 -14113298 -14113276 14113265 14113329"/>
    </vehicle>
    <vehicle id="truck28800_97" depart="29026.62">
        <route edges="-20040695 -20040694 10923916 9085266 9085879 446425 446388 5378156 -8041145 -446032 -446008 -445964"/>
    </vehicle>
    <vehicle id="truck28800_98" depart="29029.18">
        <route edges="-446207 -446380 -446406 446416 446465 -446481 -446494 -446512 446518 446539 2489981"/>
    </vehicle>
    <vehicle id="truck28800_99" depart="29032.10">
        <route edges="-10010895 -10010820 446544 446545 446526 446518 446539 -446575"/>
    </vehicle>
    <vehicle id="truck28800_100" depart="29032.11">
        <route edges="-11743068 -6088358 -7412 -7436 -7497 -446608 446621 14660824 14050772"/>
    </vehicle>
    <vehicle id="truck28800_101" depart="29033.48">
        <route edges="-446630 446626 30145282 30145283 446593 446570 446550 2489981 446517 446492 30097069 30097070 7204532 446402 446420 446421 446445 9796843 446469 9796859 -446514 -446552 -446574 446577 446591 446601 446603"/>
    </vehicle>
    <vehicle id="truck28800_102" depart="29036.04">
        <route edges="10011214 10011188 446535 446507 446513 -446552 -30100748 -30100747 -10011231 -446584 -446608 -446629 -7681"/>
    </vehicle>
    <vehicle id="truck28800_103" depart="29041.26">
        <route edges="-446501 10010895 446486 446493 446494 446481 446466"/>
    </vehicle>
    <vehicle id="truck28800_104" depart="29041.81">
        <route edges="446661 446523 -446445 -446421 -446420 -446402 -30097067"/>
    </vehicle>
    <vehicle id="truck28800_105" depart="29043.67">
        <route edges="446032 13291670 9531255"/>
    </vehicle>
    <vehicle id="truck28800_106" depart="29044.93">
        <route edges="446538 -9796823 -9796840 -9796850 -446514 -446552 -446574 446577 446591 446590 -446589 -446607 -446628 -446643"/>
    </vehicle>
    <vehicle id="truck28800_107" depart="29045.08">
        <route edges="-30097069 -446492 -446491 -446482 -446473 -446465 -446416 446406 446380 -446206 -13291693 -13291670 -446032 -446008 -445964"/>
    </vehicle>
    <vehicle id="truck28800_108" depart="29046.65">
        <route edges="30100730 10011118 446574 -30100748 -30100747 -10011231 -446584 -446608 446621 14660824 14050772 -30128968 -30128967 30128967 30128968 -14050772 -14660824 -446621"/>
    </vehicle>
    <vehicle id="truck28800_109" depart="29051.98">
        <route edges="30100748 -446574 446577 446591 446590 446586 10011214 10011188 446535"/>
    </vehicle>
    <vehicle id="truck28800_110" depart="29059.77">
        <route edges="-11743068 -6088358 -7412 -7436 -7497 -446608 446621 14660824 14050772"/>
    </vehicle>
    <vehicle id="truck28800_111" depart="29059.82">
        <route edges="-446207 -446380 -446406 446416 446465 -446481 -446494 -446512 446518 446539 2489981"/>
    </vehicle>
    <vehicle id="truck28800_112" depart="29063.83">
        <route edges="-446607 -446628 10011302 -446606 446607 446589 446586 446572"/>
    </vehicle>
    <vehicle id="truck28800_113" depart="29065.02">
        <route edges="-446207 -446380 -446406 -446454 -446463 -20040695 -20040694 10923916"/>
    </vehicle>
    <vehicle id="truck28800_114" depart="29067.41">
        <route edges="9085879 446425 446388 -5378159 446380 446207"/>
    </vehicle>
    <vehicle id="truck28800_115" depart="29067.61">
        <route edges="-446610 446609 10011231 446561 -446519 -446552 -30100748 -30100747"/>
    </vehicle>
    <vehicle id="truck28800_116" depart="29071.24">
        <route edges="9066247 12189744 9085067 20045698 20045699 446499 20040694 20040695 446477 446486 446493 446494"/>
    </vehicle>
    <vehicle id="truck28800_117" depart="29080.55">
        <route edges="-9796780 -9796771 -9796823 -9796840 -9796850 -446514 -446513 446497 9796859"/>
    </vehicle>
    <vehicle id="truck28800_118" depart="29087.19">
        <route edges="-30100748 -30100747 446561 446527 446534"/>
    </vehicle>
    <vehicle id="truck28800_119" depart="29090.12">
        <route edges="-9796840 -446520 -446561 30100747"/>
    </vehicle>
    <vehicle id="truck28800_120" depart="29091.31">
        <route edges="30097067 446402 446420 446421"/>
    </vehicle>
    <vehicle id="truck28800_121" depart="29100.15">
        <route edges="-11382371 -446425 -9085879 -9085266 -10923916 -446499 -20045699 -20045698 5378127"/>
    </vehicle>
    <vehicle id="truck28800_122" depart="29100.82">
        <route edges="446032 13291670 9531255"/>
    </vehicle>
    <vehicle id="truck28800_123" depart="29101.42">
        <route edges="-446207 -446380 5378159 5378156"/>
    </vehicle>
    <vehicle id="truck28800_124" depart="29101.68">
        <route edges="-10923916 -446499 -20045699 -20045698 -9085067 9085034 30097794 30097795 7206730 446651"/>
    </vehicle>
    <vehicle id="truck28800_125" depart="29102.94">
        <route edges="-446519 -446552 -30100748 -30100747 -10011231 -446584 -446608 446621 14660824 14050772 -30128968 -30128967 -14071571"/>
    </vehicle>
    <vehicle id="truck28800_126" depart="29107.64">
        <route edges="-446406 -446454 -446463 -20040695 -20040694 10923916 -446453"/>
    </vehicle>
    <vehicle id="truck28800_127" depart="29107.87">
        <route edges="446512 -446493 -446486 -446477 -20040695 -20040694 -446499 -20045699 -20045698 -9085067 -12189744 -9066247"/>
    </vehicle>
    <vehicle id="truck28800_128" depart="29111.13">
        <route edges="30100732 30100733 30100730 10011118 446574 446551"/>
    </vehicle>
    <vehicle id="truck28800_129" depart="29111.71">
        <route edges="-9531255 13291693 446206 446207"/>
    </vehicle>
    <vehicle id="truck28800_130" depart="29112.26">
        <route edges="-446455 -446420 -446402 -30097067"/>
    </vehicle>
    <vehicle id="truck28800_131" depart="29113.98">
        <route edges="-446491 -446482 446483 446491 446492 30097069 30097070 7204532 446402 446420 446421 446445 -446523"/>
    </vehicle>
    <vehicle id="truck28800_132" depart="29120.11">
        <route edges="446575 -446539 -446518 446512 446494 446481 -446465 -446416 446406 5378159 5378156 -8041145"/>
    </vehicle>
    <vehicle id="truck28800_133" depart="29122.95">
        <route edges="5378159 -446388 -446425 -9085879 -9085266 -10923916 20040694 20040695"/>
    </vehicle>
    <vehicle id="truck28800_134" depart="29124.88">
        <route edges="-7497 -446608 446621 14660824 14050772 14050773"/>
    </vehicle>
    <vehicle id="truck28800_135" depart="29126.15">
        <route edges="-446465 -446416 -446454 -446463 446477 -10010895"/>
    </vehicle>
    <vehicle id="truck28800_136" depart="29135.98">
        <route edges="-10011188 -10011214 -446586 -446590 -446591 -446577 446574 446552 446514 9796850 9796840"/>
    </vehicle>
    <vehicle id="truck28800_137" depart="29139.25">
        <route edges="30100748 446552 446514 9796850 9796840 9796823 9796771"/>
    </vehicle>
    <vehicle id="truck28800_138" depart="29141.72">
        <route edges="-10923916 20040694 20040695 446463 446454 446406 446380 9796670 30097066 30097067 446402 446420 446421 446445 9796843 446469 -446497"/>
    </vehicle>
    <vehicle id="truck28800_139" depart="29144.82">
        <route edges="30100748 -446574 446577 446591 446590 446586 10011214 10011188 446535"/>
    </vehicle>
    <vehicle id="truck28800_140" depart="29145.50">
        <route edges="446507 446513 -446552 -30100748 -30100747 -10011231 -446584 -446608 -446629 -7681 -446667 -7846"/>
    </vehicle>
    <vehicle id="truck28800_141" depart="29150.37">
        <route edges="7439 -7436 -7497 446584 10011231 30100747 30100748 -446574 446577 446591 446601 446603 446614 10011046"/>
    </vehicle>
    <vehicle id="truck28800_142" depart="29153.20">
        <route edges="-30145283"/>
    </vehicle>
    <vehicle id="truck28800_143" depart="29157.47">
        <route edges="-30145282 -446619 -446624 -446648 7206730 446651 446626 30145282 30145283 446593 446570 446550 -446539 -446518 -446526 -446545"/>
    </vehicle>
    <vehicle id="truck28800_144" depart="29157.56">
        <route edges="446008 446032 13291670 13291693 446206 9796670 30097066 30097067 -7204532 -30097070 -30097069 -446492 -446517"/>
    </vehicle>
    <vehicle id="truck28800_145" depart="29158.07">
        <route edges="446537 446538 -9796823 -9796840 -9796850 -446514 -446552 -446574 446577 446591 446590 -446589 -446607"/>
    </vehicle>
    <vehicle id="truck28800_146" depart="29158.35">
        <route edges="446512 -446493 -446486 -446477 -20040695 -20040694 -446499 -20045699 -20045698 -9085067 -12189744 -9066247"/>
    </vehicle>
    <vehicle id="truck28800_147" depart="29159.10">
        <route edges="446661 446523 -446445 -446421 -446420 -446402 -30097067"/>
    </vehicle>
    <vehicle id="truck28800_148" depart="29160.69">
        <route edges="-14071571 -14071572 -14050773 -14050772 -14660824 -446621 -446629 -7681"/>
    </vehicle>
    <vehicle id="truck28800_149" depart="29160.77">
        <route edges="446473 446482 446491 446492 30097069 30097070 7204532"/>
    </vehicle>
    <vehicle id="truck28800_150" depart="29167.86">
        <route edges="10011338 -446588 446589 -446590 -446591 -446577 446574 446552"/>
    </vehicle>
    <vehicle id="truck28800_151" depart="29168.47">
        <route edges="446206 9796670 30097066 30097067 -7204532 -30097070 -30097069 -446492 -446517 446516"/>
    </vehicle>
    <vehicle id="truck28800_152" depart="29170.66">
        <route edges="446610 446605 10011144 30100732 30100733 30100730 10011118 446574"/>
    </vehicle>
    <vehicle id="truck28800_153" depart="29173.16">
        <route edges="-10011070 30100732 30100733 30100730 10011118 446574 446552 -446513 -446507 -446535 -10011188 -10011214 -446586"/>
    </vehicle>
    <vehicle id="truck28800_154" depart="29176.89">
        <route edges="446661 446523 -446445 -446421 -446420 -446402 -30097067"/>
    </vehicle>
    <vehicle id="truck28800_155" depart="29177.03">
        <route edges="446032 13291670 9531255"/>
    </vehicle>
    <vehicle id="truck28800_156" depart="29179.28">
        <route edges="9085879 446425 446388 -5378159 446380 9796670 30097066 30097067 446402 446420 446421 446445 9796843 446469 9796859 9796850 9796840 -446528"/>
    </vehicle>
    <vehicle id="truck28800_157" depart="29181.72">
        <route edges="-14051135 -14050773 -14050772 -14660824 -446621 -446629 -7681 -446667"/>
    </vehicle>
    <vehicle id="truck28800_158" depart="29182.69">
        <route edges="7846 446667 7681 446629 446608"/>
    </vehicle>
    <vehicle id="truck28800_159" depart="29182.89">
        <route edges="-446603 -446601 -446591 -446577 446574 446552 446514 -9796859 -446469 -9796843 -446445 -446421 -446420 -446402 -30097067 -30097066 -9796670 -446206 -13291693 -13291670 -446032"/>
    </vehicle>
    <vehicle id="truck28800_160" depart="29191.34">
        <route edges="30097067 446402 446420 446421"/>
    </vehicle>
    <vehicle id="truck28800_161" depart="29192.51">
        <route edges="446453 -10923916 20040694 20040695 446477 446486 446493 446494 446481 446473 446482 446491"/>
    </vehicle>
    <vehicle id="truck28800_162" depart="29195.22">
        <route edges="446577 446591 446601 446603 -10011087 -7210916 10011118 446574 446552 446519 446527"/>
    </vehicle>
    <vehicle id="truck28800_163" depart="29196.69">
        <route edges="-446505 -9796771 -9796823 -9796840 -9796850 -446514 -446552 -446574 446577 446591 446590 -446589 -446607 446606 -10011302"/>
    </vehicle>
    <vehicle id="truck28800_164" depart="29201.41">
        <route edges="-14071572 -14050773 -14050772 -14660824 -446621 -446629 -7681"/>
    </vehicle>
    <vehicle id="truck28800_165" depart="29205.76">
        <route edges="-446542 446538 -9796823 -9796840 -9796850"/>
    </vehicle>
    <vehicle id="truck28800_166" depart="29207.00">
        <route edges="-30119450"/>
    </vehicle>
    <vehicle id="truck28800_167" depart="29207.20">
        <route edges="-11382371 -446425 -9085879 -9085266 -10923916 -446499 -20045699 -20045698 5378127"/>
    </vehicle>
    <vehicle id="truck28800_168" depart="29207.96">
        <route edges="446566"/>
    </vehicle>
    <vehicle id="truck28800_169" depart="29215.81">
        <route edges="-7206730 446648 446624 446619 30145282 30145283"/>
    </vehicle>
    <vehicle id="truck28800_170" depart="29216.41">
        <route edges="-446586 -446590 -446591 -446577 446574 446552 446514 -9796859 -446469 -9796843 -446445 -446421 -446420 -446402 -30097067 -30097066 -9796670 -446206 -13291693 9531255"/>
    </vehicle>
    <vehicle id="truck28800_171" depart="29224.42">
        <route edges="-9531255 13291693 446206 446207"/>
    </vehicle>
    <vehicle id="truck28800_172" depart="29224.86">
        <route edges="30097067 446402 446420 446421"/>
    </vehicle>
    <vehicle id="truck28800_173" depart="29226.79">
        <route edges="446473 446482 -446483 -446473 -446465 -446416 -446454 -446463"/>
    </vehicle>
    <vehicle id="truck28800_174" depart="29228.45">
        <route edges="-446481 -446494 -446493 -446486 -446477 -20040695 -20040694 -446499 -20045699 -20045698 -9085067 -12189744 -9066247"/>
    </vehicle>
    <vehicle id="truck28800_175" depart="29233.03">
        <route edges="20045699 446499 20040694 20040695 446463 446454 446416"/>
    </vehicle>