<additional xmlns:xsi="http://www.w3.org/2001/XMLSchema-instance" xsi:noNamespaceSchemaLocation="http://sumo.dlr.de/xsd/additional_file.xsd">
    <e1Detector file="e1output.xml" freq="5" friendlyPos="x" id="e1det_-10011025_0" lane="-10011025_0" pos="96.77"/>
    <e1Detector file="e1output.xml" freq="5" friendlyPos="x" id="e1det_-10011025_1" lane="-10011025_1" pos="96.77"/>
    <e1Detector file="e1output.xml" freq="5" friendlyPos="x" id="e1det_-446643_0" lane="-446643_0" pos="69.08"/>
    <e1Detector file="e1output.xml" freq="5" friendlyPos="x" id="e1det_-446643_1" lane="-446643_1" pos="69.08"/>
    <e1Detector file="e1output.xml" freq="5" friendlyPos="x" id="e1det_14677748_0" lane="14677748_0" pos="307.95"/>
    <e1Detector file="e1output.xml" freq="5" friendlyPos="x" id="e1det_14677748_1" lane="14677748_1" pos="307.95"/>
    <e1Detector file="e1output.xml" freq="5" friendlyPos="x" id="e1det_-11743068_0" lane="-11743068_0" pos="180.07000000000002"/>
    <e1Detector file="e1output.xml" freq="5" friendlyPos="x" id="e1det_-11743068_1" lane="-11743068_1" pos="180.07000000000002"/>
    <e1Detector file="e1output.xml" freq="5" friendlyPos="x" id="e1det_-11743068_2" lane="-11743068_2" pos="180.07000000000002"/>
    <e1Detector file="e1output.xml" freq="5" friendlyPos="x" id="e1det_-11743068_3" lane="-11743068_3" pos="180.07000000000002"/>
    <e1Detector file="e1output.xml" freq="5" friendlyPos="x" id="e1det_-20054939_0" lane="-20054939_0" pos="39.64"/>
    <e1Detector file="e1output.xml" freq="5" friendlyPos="x" id="e1det_-20054939_1" lane="-20054939_1" pos="39.64"/>
    <e1Detector file="e1output.xml" freq="5" friendlyPos="x" id="e1det_-20054939_2" lane="-20054939_2" pos="39.64"/>
    <e1Detector file="e1output.xml" freq="5" friendlyPos="x" id="e1det_-20054939_3" lane="-20054939_3" pos="39.64"/>
    <e1Detector file="e1output.xml" freq="5" friendlyPos="x" id="e1det_6088358_0" lane="6088358_0" pos="68.19"/>
    <e1Detector file="e1output.xml" freq="5" friendlyPos="x" id="e1det_6088358_1" lane="6088358_1" pos="68.19"/>
    <e1Detector file="e1output.xml" freq="5" friendlyPos="x" id="e1det_6088358_2" lane="6088358_2" pos="68.19"/>
    <e1Detector file="e1output.xml" freq="5" friendlyPos="x" id="e1det_6088358_3" lane="6088358_3" pos="68.19"/>
    <e1Detector file="e1output.xml" freq="5" friendlyPos="x" id="e1det_9796780_0" lane="9796780_0" pos="92.97"/>
    <e1Detector file="e1output.xml" freq="5" friendlyPos="x" id="e1det_9796780_1" lane="9796780_1" pos="92.97"/>
    <e1Detector file="e1output.xml" freq="5" friendlyPos="x" id="e1det_9796780_2" lane="9796780_2" pos="92.97"/>
    <e1Detector file="e1output.xml" freq="5" friendlyPos="x" id="e1det_9796780_3" lane="9796780_3" pos="92.97"/>
    <e1Detector file="e1output.xml" freq="5" friendlyPos="x" id="e1det_-13291670_0" lane="-13291670_0" pos="123.25"/>
    <e1Detector file="e1output.xml" freq="5" friendlyPos="x" id="e1det_-13291670_1" lane="-13291670_1" pos="123.25"/>
    <e1Detector file="e1output.xml" freq="5" friendlyPos="x" id="e1det_-13291670_2" lane="-13291670_2" pos="123.25"/>
    <e1Detector file="e1output.xml" freq="5" friendlyPos="x" id="e1det_-13291670_3" lane="-13291670_3" pos="123.25"/>
    <e1Detector file="e1output.xml" freq="5" friendlyPos="x" id="e1det_-8041145_0" lane="-8041145_0" pos="300.31"/>
    <e1Detector file="e1output.xml" freq="5" friendlyPos="x" id="e1det_-8041145_1" lane="-8041145_1" pos="300.31"/>
    <e1Detector file="e1output.xml" freq="5" friendlyPos="x" id="e1det_446032_0" lane="446032_0" pos="80.78999999999999"/>
    <e1Detector file="e1output.xml" freq="5" friendlyPos="x" id="e1det_446032_1" lane="446032_1" pos="80.78999999999999"/>
    <e1Detector file="e1output.xml" freq="5" friendlyPos="x" id="e1det_446032_2" lane="446032_2" pos="80.78999999999999"/>
    <e1Detector file="e1output.xml" freq="5" friendlyPos="x" id="e1det_446032_3" lane="446032_3" pos="80.78999999999999"/>
    <e1Detector file="e1output.xml" freq="5" friendlyPos="x" id="e1det_-30097066_0" lane="-30097066_0" pos="207.08"/>
    <e1Detector file="e1output.xml" freq="5" friendlyPos="x" id="e1det_-30097066_1" lane="-30097066_1" pos="207.08"/>
    <e1Detector file="e1output.xml" freq="5" friendlyPos="x" id="e1det_-30097066_2" lane="-30097066_2" pos="207.08"/>
    <e1Detector file="e1output.xml" freq="5" friendlyPos="x" id="e1det_-30097066_3" lane="-30097066_3" pos="207.08"/>
    <e1Detector file="e1output.xml" freq="5" friendlyPos="x" id="e1det_-446299_0" lane="-446299_0" pos="119.86999999999999"/>
    <e1Detector file="e1output.xml" freq="5" friendlyPos="x" id="e1det_-446299_1" lane="-446299_1" pos="119.86999999999999"/>
    <e1Detector file="e1output.xml" freq="5" friendlyPos="x" id="e1det_9796670_0" lane="9796670_0" pos="374.49"/>
    <e1Detector file="e1output.xml" freq="5" friendlyPos="x" id="e1det_9796670_1" lane="9796670_1" pos="374.49"/>
    <e1Detector file="e1output.xml" freq="5" friendlyPos="x" id="e1det_9796670_2" lane="9796670_2" pos="374.49"/>
    <e1Detector file="e1output.xml" freq="5" friendlyPos="x" id="e1det_9796670_3" lane="9796670_3" pos="374.49"/>
    <e1Detector file="e1output.xml" freq="5" friendlyPos="x" id="e1det_-30119451_0" lane="-30119451_0" pos="15.42"/>
    <e1Detector file="e1output.xml" freq="5" friendlyPos="x" id="e1det_-30119451_1" lane="-30119451_1" pos="15.42"/>
    <e1Detector file="e1output.xml" freq="5" friendlyPos="x" id="e1det_30119450_0" lane="30119450_0" pos="28.580000000000002"/>
    <e1Detector file="e1output.xml" freq="5" friendlyPos="x" id="e1det_30119450_1" lane="30119450_1" pos="28.580000000000002"/>
    <e1Detector file="e1output.xml" freq="5" friendlyPos="x" id="e1det_-446206_0" lane="-446206_0" pos="308.37"/>
    <e1Detector file="e1output.xml" freq="5" friendlyPos="x" id="e1det_-446206_1" lane="-446206_1" pos="308.37"/>
    <e1Detector file="e1output.xml" freq="5" friendlyPos="x" id="e1det_-446206_2" lane="-446206_2" pos="308.37"/>
    <e1Detector file="e1output.xml" freq="5" friendlyPos="x" id="e1det_-446206_3" lane="-446206_3" pos="308.37"/>
    <e1Detector file="e1output.xml" freq="5" friendlyPos="x" id="e1det_-9531103_0" lane="-9531103_0" pos="93.64999999999999"/>
    <e1Detector file="e1output.xml" freq="5" friendlyPos="x" id="e1det_-9531103_1" lane="-9531103_1" pos="93.64999999999999"/>
    <e1Detector file="e1output.xml" freq="5" friendlyPos="x" id="e1det_13291693_0" lane="13291693_0" pos="99.45"/>
    <e1Detector file="e1output.xml" freq="5" friendlyPos="x" id="e1det_13291693_1" lane="13291693_1" pos="99.45"/>
    <e1Detector file="e1output.xml" freq="5" friendlyPos="x" id="e1det_13291693_2" lane="13291693_2" pos="99.45"/>
    <e1Detector file="e1output.xml" freq="5" friendlyPos="x" id="e1det_13291693_3" lane="13291693_3" pos="99.45"/>
    <e1Detector file="e1output.xml" freq="5" friendlyPos="x" id="e1det_-446207_0" lane="-446207_0" pos="108.16"/>
    <e1Detector file="e1output.xml" freq="5" friendlyPos="x" id="e1det_-446207_1" lane="-446207_1" pos="108.16"/>
    <e1Detector file="e1output.xml" freq="5" friendlyPos="x" id="e1det_-446207_2" lane="-446207_2" pos="108.16"/>
    <e1Detector file="e1output.xml" freq="5" friendlyPos="x" id="e1det_-446207_3" lane="-446207_3" pos="108.16"/>
    <e1Detector file="e1output.xml" freq="5" friendlyPos="x" id="e1det_-9796670_0" lane="-9796670_0" pos="374.49"/>
    <e1Detector file="e1output.xml" freq="5" friendlyPos="x" id="e1det_-9796670_1" lane="-9796670_1" pos="374.49"/>
    <e1Detector file="e1output.xml" freq="5" friendlyPos="x" id="e1det_-9796670_2" lane="-9796670_2" pos="374.49"/>
    <e1Detector file="e1output.xml" freq="5" friendlyPos="x" id="e1det_-9796670_3" lane="-9796670_3" pos="374.49"/>
    <e1Detector file="e1output.xml" freq="5" friendlyPos="x" id="e1det_446206_0" lane="446206_0" pos="308.37"/>
    <e1Detector file="e1output.xml" freq="5" friendlyPos="x" id="e1det_446206_1" lane="446206_1" pos="308.37"/>
    <e1Detector file="e1output.xml" freq="5" friendlyPos="x" id="e1det_446206_2" lane="446206_2" pos="308.37"/>
    <e1Detector file="e1output.xml" freq="5" friendlyPos="x" id="e1det_446206_3" lane="446206_3" pos="308.37"/>
    <e1Detector file="e1output.xml" freq="5" friendlyPos="x" id="e1det_446380_0" lane="446380_0" pos="278.39"/>
    <e1Detector file="e1output.xml" freq="5" friendlyPos="x" id="e1det_446380_1" lane="446380_1" pos="278.39"/>
    <e1Detector file="e1output.xml" freq="5" friendlyPos="x" id="e1det_446380_2" lane="446380_2" pos="278.39"/>
    <e1Detector file="e1output.xml" freq="5" friendlyPos="x" id="e1det_446380_3" lane="446380_3" pos="278.39"/>
    <e1Detector file="e1output.xml" freq="5" friendlyPos="x" id="e1det_-446378_0" lane="-446378_0" pos="126.7"/>
    <e1Detector file="e1output.xml" freq="5" friendlyPos="x" id="e1det_-446378_1" lane="-446378_1" pos="126.7"/>
    <e1Detector file="e1output.xml" freq="5" friendlyPos="x" id="e1det_-446402_0" lane="-446402_0" pos="215.84"/>
    <e1Detector file="e1output.xml" freq="5" friendlyPos="x" id="e1det_-446402_1" lane="-446402_1" pos="215.84"/>
    <e1Detector file="e1output.xml" freq="5" friendlyPos="x" id="e1det_-446402_2" lane="-446402_2" pos="215.84"/>
    <e1Detector file="e1output.xml" freq="5" friendlyPos="x" id="e1det_-446402_3" lane="-446402_3" pos="215.84"/>
    <e1Detector file="e1output.xml" freq="5" friendlyPos="x" id="e1det_30097067_0" lane="30097067_0" pos="233.4"/>
    <e1Detector file="e1output.xml" freq="5" friendlyPos="x" id="e1det_30097067_1" lane="30097067_1" pos="233.4"/>
    <e1Detector file="e1output.xml" freq="5" friendlyPos="x" id="e1det_30097067_2" lane="30097067_2" pos="233.4"/>
    <e1Detector file="e1output.xml" freq="5" friendlyPos="x" id="e1det_30097067_3" lane="30097067_3" pos="233.4"/>
    <e1Detector file="e1output.xml" freq="5" friendlyPos="x" id="e1det_7204532_0" lane="7204532_0" pos="77.38"/>
    <e1Detector file="e1output.xml" freq="5" friendlyPos="x" id="e1det_7204532_1" lane="7204532_1" pos="77.38"/>
    <e1Detector file="e1output.xml" freq="5" friendlyPos="x" id="e1det_-446453_0" lane="-446453_0" pos="371.40000000000003"/>
    <e1Detector file="e1output.xml" freq="5" friendlyPos="x" id="e1det_-446453_1" lane="-446453_1" pos="371.40000000000003"/>
    <e1Detector file="e1output.xml" freq="5" friendlyPos="x" id="e1det_-446454_0" lane="-446454_0" pos="116.88"/>
    <e1Detector file="e1output.xml" freq="5" friendlyPos="x" id="e1det_-446454_1" lane="-446454_1" pos="116.88"/>
    <e1Detector file="e1output.xml" freq="5" friendlyPos="x" id="e1det_-446454_2" lane="-446454_2" pos="116.88"/>
    <e1Detector file="e1output.xml" freq="5" friendlyPos="x" id="e1det_-446454_3" lane="-446454_3" pos="116.88"/>
    <e1Detector file="e1output.xml" freq="5" friendlyPos="x" id="e1det_446463_0" lane="446463_0" pos="31.54"/>
    <e1Detector file="e1output.xml" freq="5" friendlyPos="x" id="e1det_446463_1" lane="446463_1" pos="31.54"/>
    <e1Detector file="e1output.xml" freq="5" friendlyPos="x" id="e1det_446463_2" lane="446463_2" pos="31.54"/>
    <e1Detector file="e1output.xml" freq="5" friendlyPos="x" id="e1det_446463_3" lane="446463_3" pos="31.54"/>
    <e1Detector file="e1output.xml" freq="5" friendlyPos="x" id="e1det_-446546_0" lane="-446546_0" pos="53.12"/>
    <e1Detector file="e1output.xml" freq="5" friendlyPos="x" id="e1det_-446546_1" lane="-446546_1" pos="53.12"/>
    <e1Detector file="e1output.xml" freq="5" friendlyPos="x" id="e1det_5378127_0" lane="5378127_0" pos="548.64"/>
    <e1Detector file="e1output.xml" freq="5" friendlyPos="x" id="e1det_5378127_1" lane="5378127_1" pos="548.64"/>
    <e1Detector file="e1output.xml" freq="5" friendlyPos="x" id="e1det_5378151_0" lane="5378151_0" pos="184.5"/>
    <e1Detector file="e1output.xml" freq="5" friendlyPos="x" id="e1det_5378151_1" lane="5378151_1" pos="184.5"/>
    <e1Detector file="e1output.xml" freq="5" friendlyPos="x" id="e1det_-446584_0" lane="-446584_0" pos="219.48000000000002"/>
    <e1Detector file="e1output.xml" freq="5" friendlyPos="x" id="e1det_-446584_1" lane="-446584_1" pos="219.48000000000002"/>
    <e1Detector file="e1output.xml" freq="5" friendlyPos="x" id="e1det_-7497_0" lane="-7497_0" pos="146.42000000000002"/>
    <e1Detector file="e1output.xml" freq="5" friendlyPos="x" id="e1det_-7497_1" lane="-7497_1" pos="146.42000000000002"/>
    <e1Detector file="e1output.xml" freq="5" friendlyPos="x" id="e1det_-7497_2" lane="-7497_2" pos="146.42000000000002"/>
    <e1Detector file="e1output.xml" freq="5" friendlyPos="x" id="e1det_-7497_3" lane="-7497_3" pos="146.42000000000002"/>
    <e1Detector file="e1output.xml" freq="5" friendlyPos="x" id="e1det_446608_0" lane="446608_0" pos="127.99999999999999"/>
    <e1Detector file="e1output.xml" freq="5" friendlyPos="x" id="e1det_446608_1" lane="446608_1" pos="127.99999999999999"/>
    <e1Detector file="e1output.xml" freq="5" friendlyPos="x" id="e1det_446608_2" lane="446608_2" pos="127.99999999999999"/>
    <e1Detector file="e1output.xml" freq="5" friendlyPos="x" id="e1det_446608_3" lane="446608_3" pos="127.99999999999999"/>
    <e1Detector file="e1output.xml" freq="5" friendlyPos="x" id="e1det_-446629_0" lane="-446629_0" pos="93.21"/>
    <e1Detector file="e1output.xml" freq="5" friendlyPos="x" id="e1det_-446629_1" lane="-446629_1" pos="93.21"/>
    <e1Detector file="e1output.xml" freq="5" friendlyPos="x" id="e1det_-446629_2" lane="-446629_2" pos="93.21"/>
    <e1Detector file="e1output.xml" freq="5" friendlyPos="x" id="e1det_-446629_3" lane="-446629_3" pos="93.21"/>
    <e1Detector file="e1output.xml" freq="5" friendlyPos="x" id="e1det_30080155_0" lane="30080155_0" pos="251.11"/>
    <e1Detector file="e1output.xml" freq="5" friendlyPos="x" id="e1det_30080155_1" lane="30080155_1" pos="251.11"/>
    <e1Detector file="e1output.xml" freq="5" friendlyPos="x" id="e1det_446632_0" lane="446632_0" pos="57.989999999999995"/>
    <e1Detector file="e1output.xml" freq="5" friendlyPos="x" id="e1det_446632_1" lane="446632_1" pos="57.989999999999995"/>
    <e1Detector file="e1output.xml" freq="5" friendlyPos="x" id="e1det_7681_0" lane="7681_0" pos="93.28999999999999"/>
    <e1Detector file="e1output.xml" freq="5" friendlyPos="x" id="e1det_7681_1" lane="7681_1" pos="93.28999999999999"/>
    <e1Detector file="e1output.xml" freq="5" friendlyPos="x" id="e1det_7681_2" lane="7681_2" pos="93.28999999999999"/>
    <e1Detector file="e1output.xml" freq="5" friendlyPos="x" id="e1det_7681_3" lane="7681_3" pos="93.28999999999999"/>
    <e1Detector file="e1output.xml" freq="5" friendlyPos="x" id="e1det_-446662_0" lane="-446662_0" pos="245.74"/>
    <e1Detector file="e1output.xml" freq="5" friendlyPos="x" id="e1det_-446662_1" lane="-446662_1" pos="245.74"/>
    <e1Detector file="e1output.xml" freq="5" friendlyPos="x" id="e1det_446666_0" lane="446666_0" pos="20.05"/>
    <e1Detector file="e1output.xml" freq="5" friendlyPos="x" id="e1det_446666_1" lane="446666_1" pos="20.05"/>
    <e1Detector file="e1output.xml" freq="5" friendlyPos="x" id="e1det_5625788_0" lane="5625788_0" pos="25.14"/>
    <e1Detector file="e1output.xml" freq="5" friendlyPos="x" id="e1det_5625788_1" lane="5625788_1" pos="25.14"/>
    <e1Detector file="e1output.xml" freq="5" friendlyPos="x" id="e1det_-7206707_0" lane="-7206707_0" pos="91.89"/>
    <e1Detector file="e1output.xml" freq="5" friendlyPos="x" id="e1det_-7206707_1" lane="-7206707_1" pos="91.89"/>
    <e1Detector file="e1output.xml" freq="5" friendlyPos="x" id="e1det_-7829_0" lane="-7829_0" pos="58.11"/>
    <e1Detector file="e1output.xml" freq="5" friendlyPos="x" id="e1det_-7829_1" lane="-7829_1" pos="58.11"/>
    <e1Detector file="e1output.xml" freq="5" friendlyPos="x" id="e1det_-7436_0" lane="-7436_0" pos="81.94"/>
    <e1Detector file="e1output.xml" freq="5" friendlyPos="x" id="e1det_-7436_1" lane="-7436_1" pos="81.94"/>
    <e1Detector file="e1output.xml" freq="5" friendlyPos="x" id="e1det_-7436_2" lane="-7436_2" pos="81.94"/>
    <e1Detector file="e1output.xml" freq="5" friendlyPos="x" id="e1det_-7436_3" lane="-7436_3" pos="81.94"/>
    <e1Detector file="e1output.xml" freq="5" friendlyPos="x" id="e1det_7451_0" lane="7451_0" pos="69.33"/>
    <e1Detector file="e1output.xml" freq="5" friendlyPos="x" id="e1det_7451_1" lane="7451_1" pos="69.33"/>
    <e1Detector file="e1output.xml" freq="5" friendlyPos="x" id="e1det_7497_0" lane="7497_0" pos="146.42000000000002"/>
    <e1Detector file="e1output.xml" freq="5" friendlyPos="x" id="e1det_7497_1" lane="7497_1" pos="146.42000000000002"/>
    <e1Detector file="e1output.xml" freq="5" friendlyPos="x" id="e1det_7497_2" lane="7497_2" pos="146.42000000000002"/>
    <e1Detector file="e1output.xml" freq="5" friendlyPos="x" id="e1det_7497_3" lane="7497_3" pos="146.42000000000002"/>
    <e1Detector file="e1output.xml" freq="5" friendlyPos="x" id="e1det_-9085034_0" lane="-9085034_0" pos="251.46"/>
    <e1Detector file="e1output.xml" freq="5" friendlyPos="x" id="e1det_-9085034_1" lane="-9085034_1" pos="251.46"/>
    <e1Detector file="e1output.xml" freq="5" friendlyPos="x" id="e1det_-9085067_0" lane="-9085067_0" pos="13.42"/>
    <e1Detector file="e1output.xml" freq="5" friendlyPos="x" id="e1det_-9085067_1" lane="-9085067_1" pos="13.42"/>
    <e1Detector file="e1output.xml" freq="5" friendlyPos="x" id="e1det_-9085067_2" lane="-9085067_2" pos="13.42"/>
    <e1Detector file="e1output.xml" freq="5" friendlyPos="x" id="e1det_-9085067_3" lane="-9085067_3" pos="13.42"/>
    <e1Detector file="e1output.xml" freq="5" friendlyPos="x" id="e1det_12189744_0" lane="12189744_0" pos="182.59"/>
    <e1Detector file="e1output.xml" freq="5" friendlyPos="x" id="e1det_12189744_1" lane="12189744_1" pos="182.59"/>
    <e1Detector file="e1output.xml" freq="5" friendlyPos="x" id="e1det_12189744_2" lane="12189744_2" pos="182.59"/>
    <e1Detector file="e1output.xml" freq="5" friendlyPos="x" id="e1det_12189744_3" lane="12189744_3" pos="182.59"/>
    <e1Detector file="e1output.xml" freq="5" friendlyPos="x" id="e1det_-9796823_0" lane="-9796823_0" pos="161.71"/>
    <e1Detector file="e1output.xml" freq="5" friendlyPos="x" id="e1det_-9796823_1" lane="-9796823_1" pos="161.71"/>
    <e1Detector file="e1output.xml" freq="5" friendlyPos="x" id="e1det_-9796823_2" lane="-9796823_2" pos="161.71"/>
    <e1Detector file="e1output.xml" freq="5" friendlyPos="x" id="e1det_-9796823_3" lane="-9796823_3" pos="161.71"/>
    <e1Detector file="e1output.xml" freq="5" friendlyPos="x" id="e1det_446528_0" lane="446528_0" pos="174.0"/>
    <e1Detector file="e1output.xml" freq="5" friendlyPos="x" id="e1det_446528_1" lane="446528_1" pos="174.0"/>
    <e1Detector file="e1output.xml" freq="5" friendlyPos="x" id="e1det_9796840_0" lane="9796840_0" pos="106.86"/>
    <e1Detector file="e1output.xml" freq="5" friendlyPos="x" id="e1det_9796840_1" lane="9796840_1" pos="106.86"/>
    <e1Detector file="e1output.xml" freq="5" friendlyPos="x" id="e1det_9796840_2" lane="9796840_2" pos="106.86"/>
    <e1Detector file="e1output.xml" freq="5" friendlyPos="x" id="e1det_9796840_3" lane="9796840_3" pos="106.86"/>
    <e1Detector file="e1output.xml" freq="5" friendlyPos="x" id="e1det_-9796843_0" lane="-9796843_0" pos="126.3"/>
    <e1Detector file="e1output.xml" freq="5" friendlyPos="x" id="e1det_-9796843_1" lane="-9796843_1" pos="126.3"/>
    <e1Detector file="e1output.xml" freq="5" friendlyPos="x" id="e1det_-9796843_2" lane="-9796843_2" pos="126.3"/>
    <e1Detector file="e1output.xml" freq="5" friendlyPos="x" id="e1det_-9796843_3" lane="-9796843_3" pos="126.3"/>
    <e1Detector file="e1output.xml" freq="5" friendlyPos="x" id="e1det_446445_0" lane="446445_0" pos="188.02"/>
    <e1Detector file="e1output.xml" freq="5" friendlyPos="x" id="e1det_446445_1" lane="446445_1" pos="188.02"/>
    <e1Detector file="e1output.xml" freq="5" friendlyPos="x" id="e1det_446445_2" lane="446445_2" pos="188.02"/>
    <e1Detector file="e1output.xml" freq="5" friendlyPos="x" id="e1det_446445_3" lane="446445_3" pos="188.02"/>
    <e1Detector file="e1output.xml" freq="5" friendlyPos="x" id="e1det_446523_0" lane="446523_0" pos="508.71000000000004"/>
    <e1Detector file="e1output.xml" freq="5" friendlyPos="x" id="e1det_446523_1" lane="446523_1" pos="508.71000000000004"/>
    <e1Detector file="e1output.xml" freq="5" friendlyPos="x" id="e1det_446523_2" lane="446523_2" pos="508.71000000000004"/>
    <e1Detector file="e1output.xml" freq="5" friendlyPos="x" id="e1det_446523_3" lane="446523_3" pos="508.71000000000004"/>
    <e1Detector file="e1output.xml" freq="5" friendlyPos="x" id="e1det_-9796859_0" lane="-9796859_0" pos="88.42"/>
    <e1Detector file="e1output.xml" freq="5" friendlyPos="x" id="e1det_-9796859_1" lane="-9796859_1" pos="88.42"/>
    <e1Detector file="e1output.xml" freq="5" friendlyPos="x" id="e1det_-9796859_2" lane="-9796859_2" pos="88.42"/>
    <e1Detector file="e1output.xml" freq="5" friendlyPos="x" id="e1det_-9796859_3" lane="-9796859_3" pos="88.42"/>
    <e1Detector file="e1output.xml" freq="5" friendlyPos="x" id="e1det_446469_0" lane="446469_0" pos="91.61999999999999"/>
    <e1Detector file="e1output.xml" freq="5" friendlyPos="x" id="e1det_446469_1" lane="446469_1" pos="91.61999999999999"/>
    <e1Detector file="e1output.xml" freq="5" friendlyPos="x" id="e1det_446469_2" lane="446469_2" pos="91.61999999999999"/>
    <e1Detector file="e1output.xml" freq="5" friendlyPos="x" id="e1det_446469_3" lane="446469_3" pos="91.61999999999999"/>
    <e1Detector file="e1output.xml" freq="5" friendlyPos="x" id="e1det_446497_0" lane="446497_0" pos="234.59"/>
    <e1Detector file="e1output.xml" freq="5" friendlyPos="x" id="e1det_446497_1" lane="446497_1" pos="234.59"/>
</additional>
