<additional xmlns:xsi="http://www.w3.org/2001/XMLSchema-instance" xsi:noNamespaceSchemaLocation="http://sumo.dlr.de/xsd/additional_file.xsd">
    <e3Detector id="e3_13457925_-10010895" freq="5" file="e3output.xml">
        <detEntry lane="-446493_0" pos="37.01"/>
        <detEntry lane="-446493_1" pos="37.01"/>
        <detEntry lane="446477_0" pos="53.44"/>
        <detEntry lane="446477_1" pos="53.44"/>
        <detEntry lane="446525_0" pos="173.78"/>
        <detEntry lane="446525_1" pos="173.78"/>
        <detExit lane="-10010895_0" pos="-.1"/>
        <detExit lane="-10010895_1" pos="-.1"/>
    </e3Detector>
    <e3Detector id="e3_13457925_-446501" freq="5" file="e3output.xml">
        <detEntry lane="-446501_0" pos="0.20"/>
        <detEntry lane="-446501_1" pos="0.20"/>
        <detExit lane="-446501_0" pos="-.1"/>
        <detExit lane="-446501_1" pos="-.1"/>
    </e3Detector>
    <e3Detector id="e3_13457925_10010820" freq="5" file="e3output.xml">
        <detEntry lane="-446544_0" pos="77.42"/>
        <detEntry lane="-446544_1" pos="77.42"/>
        <detEntry lane="20040662_0" pos="31.32"/>
        <detEntry lane="20040662_1" pos="31.32"/>
        <detExit lane="10010820_0" pos="-.1"/>
        <detExit lane="10010820_1" pos="-.1"/>
    </e3Detector>
    <e3Detector id="e3_13458081_-10010820" freq="5" file="e3output.xml">
        <detEntry lane="-446486_0" pos="72.87"/>
        <detEntry lane="-446486_1" pos="72.87"/>
        <detEntry lane="-446501_0" pos="0.20"/>
        <detEntry lane="-446501_1" pos="0.20"/>
        <detEntry lane="446477_0" pos="184.58"/>
        <detEntry lane="446477_1" pos="184.58"/>
        <detExit lane="-10010820_0" pos="-.1"/>
        <detExit lane="-10010820_1" pos="-.1"/>
    </e3Detector>
    <e3Detector id="e3_13458081_-446544" freq="5" file="e3output.xml">
        <detEntry lane="-446545_0" pos="45.41"/>
        <detEntry lane="-446545_1" pos="45.41"/>
        <detEntry lane="-446569_0" pos="259.66"/>
        <detEntry lane="-446569_1" pos="259.66"/>
        <detEntry lane="446563_0" pos="46.50"/>
        <detEntry lane="446563_1" pos="46.50"/>
        <detExit lane="-446544_0" pos="-.1"/>
        <detExit lane="-446544_1" pos="-.1"/>
    </e3Detector>
    <e3Detector id="e3_13458081_20040662" freq="5" file="e3output.xml">
        <detEntry lane="-10923916_0" pos="382.68"/>
        <detEntry lane="-10923916_1" pos="382.68"/>
        <detEntry lane="-20040681_0" pos="4.31"/>
        <detEntry lane="-20040681_1" pos="4.31"/>
        <detEntry lane="-20040694_0" pos="62.42"/>
        <detEntry lane="-20040694_1" pos="62.42"/>
        <detEntry lane="-20040694_2" pos="62.42"/>
        <detEntry lane="-20040694_3" pos="62.42"/>
        <detEntry lane="20045699_0" pos="142.49"/>
        <detEntry lane="20045699_1" pos="142.49"/>
        <detEntry lane="20045699_2" pos="142.49"/>
        <detEntry lane="20045699_3" pos="142.49"/>
        <detExit lane="20040662_0" pos="-.1"/>
        <detExit lane="20040662_1" pos="-.1"/>
    </e3Detector>
    <e3Detector id="e3_13457781_-446486" freq="5" file="e3output.xml">
        <detEntry lane="-446481_0" pos="64.20"/>
        <detEntry lane="-446481_1" pos="64.20"/>
        <detEntry lane="-446500_0" pos="204.87"/>
        <detEntry lane="-446500_1" pos="204.87"/>
        <detEntry lane="446512_0" pos="9.72"/>
        <detEntry lane="446512_1" pos="9.72"/>
        <detEntry lane="446525_0" pos="79.12"/>
        <detEntry lane="446525_1" pos="79.12"/>
        <detExit lane="-446486_0" pos="-.1"/>
        <detExit lane="-446486_1" pos="-.1"/>
    </e3Detector>
    <e3Detector id="e3_13457781_10010895" freq="5" file="e3output.xml">
        <detEntry lane="-446501_0" pos="0.20"/>
        <detEntry lane="-446501_1" pos="0.20"/>
        <detEntry lane="-446544_0" pos="172.08"/>
        <detEntry lane="-446544_1" pos="172.08"/>
        <detEntry lane="20040662_0" pos="125.98"/>
        <detEntry lane="20040662_1" pos="125.98"/>
        <detExit lane="10010895_0" pos="-.1"/>
        <detExit lane="10010895_1" pos="-.1"/>
    </e3Detector>
    <e3Detector id="e3_13457781_446477" freq="5" file="e3output.xml">
        <detEntry lane="-446463_0" pos="0.20"/>
        <detEntry lane="-446463_1" pos="0.20"/>
        <detEntry lane="-446463_2" pos="0.20"/>
        <detEntry lane="-446463_3" pos="0.20"/>
        <detEntry lane="20040695_0" pos="18.78"/>
        <detEntry lane="20040695_1" pos="18.78"/>
        <detEntry lane="20040695_2" pos="18.78"/>
        <detEntry lane="20040695_3" pos="18.78"/>
        <detExit lane="446477_0" pos="-.1"/>
        <detExit lane="446477_1" pos="-.1"/>
    </e3Detector>
    <e3Detector id="e3_13458519_10010939" freq="5" file="e3output.xml">
        <detEntry lane="-446570_0" pos="47.31"/>
        <detEntry lane="-446570_1" pos="47.31"/>
        <detEntry lane="-446575_0" pos="263.65"/>
        <detEntry lane="-446575_1" pos="263.65"/>
        <detEntry lane="-446592_0" pos="0.20"/>
        <detEntry lane="-446592_1" pos="0.20"/>
        <detEntry lane="-446630_0" pos="214.18"/>
        <detEntry lane="-446630_1" pos="214.18"/>
        <detEntry lane="446569_0" pos="260.73"/>
        <detEntry lane="446569_1" pos="260.73"/>
        <detEntry lane="446619_0" pos="151.31"/>
        <detEntry lane="446619_1" pos="151.31"/>
        <detEntry lane="446651_0" pos="121.92"/>
        <detEntry lane="446651_1" pos="121.92"/>
        <detExit lane="10010939_0" pos="-.1"/>
        <detExit lane="10010939_1" pos="-.1"/>
    </e3Detector>
    <e3Detector id="e3_13458503_-10010939" freq="5" file="e3output.xml">
        <detEntry lane="-10010939_0" pos="0.20"/>
        <detEntry lane="-10010939_1" pos="0.20"/>
        <detExit lane="-10010939_0" pos="-.1"/>
        <detExit lane="-10010939_1" pos="-.1"/>
    </e3Detector>
    <e3Detector id="e3_13458503_-446592" freq="5" file="e3output.xml">
        <detEntry lane="-446592_0" pos="0.20"/>
        <detEntry lane="-446592_1" pos="0.20"/>
        <detExit lane="-446592_0" pos="-.1"/>
        <detExit lane="-446592_1" pos="-.1"/>
    </e3Detector>
    <e3Detector id="e3_13458503_-446593" freq="5" file="e3output.xml">
        <detEntry lane="-446549_0" pos="260.92"/>
        <detEntry lane="-446549_1" pos="260.92"/>
        <detEntry lane="-446550_0" pos="41.67"/>
        <detEntry lane="-446550_1" pos="41.67"/>
        <detEntry lane="-446575_0" pos="179.72"/>
        <detEntry lane="-446575_1" pos="179.72"/>
        <detEntry lane="446569_0" pos="176.80"/>
        <detEntry lane="446569_1" pos="176.80"/>
        <detExit lane="-446593_0" pos="-.1"/>
        <detExit lane="-446593_1" pos="-.1"/>
    </e3Detector>
    <e3Detector id="e3_13458503_30145283" freq="5" file="e3output.xml">
        <detEntry lane="-446630_0" pos="130.25"/>
        <detEntry lane="-446630_1" pos="130.25"/>
        <detEntry lane="446619_0" pos="67.38"/>
        <detEntry lane="446619_1" pos="67.38"/>
        <detEntry lane="446651_0" pos="37.99"/>
        <detEntry lane="446651_1" pos="37.99"/>
        <detExit lane="30145283_0" pos="-.1"/>
        <detExit lane="30145283_1" pos="-.1"/>
    </e3Detector>
    <e3Detector id="e3_13458899_-446641" freq="5" file="e3output.xml">
        <detEntry lane="-30119450_0" pos="14.59"/>
        <detEntry lane="-30119450_1" pos="14.59"/>
        <detEntry lane="-446636_0" pos="63.14"/>
        <detEntry lane="-446636_1" pos="63.14"/>
        <detEntry lane="-446638_0" pos="8.43"/>
        <detEntry lane="-446638_1" pos="8.43"/>
        <detEntry lane="10011025_0" pos="0.20"/>
        <detEntry lane="10011025_1" pos="0.20"/>
        <detEntry lane="14113230_0" pos="6.52"/>
        <detEntry lane="14113230_1" pos="6.52"/>
        <detExit lane="-446641_0" pos="-.1"/>
        <detExit lane="-446641_1" pos="-.1"/>
    </e3Detector>
    <e3Detector id="e3_13458899_-446642" freq="5" file="e3output.xml">
        <detEntry lane="-14113312_0" pos="73.69"/>
        <detEntry lane="-14113312_1" pos="73.69"/>
        <detEntry lane="-30119450_0" pos="0.20"/>
        <detEntry lane="-30119450_1" pos="0.20"/>
        <detEntry lane="-446613_0" pos="115.56"/>
        <detEntry lane="-446613_1" pos="115.56"/>
        <detEntry lane="-446636_0" pos="27.43"/>
        <detEntry lane="-446636_1" pos="27.43"/>
        <detEntry lane="10011025_0" pos="0.20"/>
        <detEntry lane="10011025_1" pos="0.20"/>
        <detEntry lane="10011046_0" pos="22.63"/>
        <detEntry lane="10011046_1" pos="22.63"/>
        <detEntry lane="14113229_0" pos="64.73"/>
        <detEntry lane="14113229_1" pos="64.73"/>
        <detExit lane="-446642_0" pos="-.1"/>
        <detExit lane="-446642_1" pos="-.1"/>
    </e3Detector>
    <e3Detector id="e3_13458899_10011025" freq="5" file="e3output.xml">
        <detEntry lane="10011025_0" pos="0.20"/>
        <detEntry lane="10011025_1" pos="0.20"/>
        <detExit lane="10011025_0" pos="-.1"/>
        <detExit lane="10011025_1" pos="-.1"/>
    </e3Detector>
    <e3Detector id="e3_13458916_-10011025" freq="5" file="e3output.xml">
        <detEntry lane="-446638_0" pos="69.69"/>
        <detEntry lane="-446638_1" pos="69.69"/>
        <detEntry lane="-446639_0" pos="47.07"/>
        <detEntry lane="-446639_1" pos="47.07"/>
        <detEntry lane="10011025_0" pos="84.51"/>
        <detEntry lane="10011025_1" pos="84.51"/>
        <detEntry lane="14113230_0" pos="67.78"/>
        <detEntry lane="14113230_1" pos="67.78"/>
        <detExit lane="-10011025_0" pos="-.1"/>
        <detExit lane="-10011025_1" pos="-.1"/>
    </e3Detector>
    <e3Detector id="e3_13458916_-446643" freq="5" file="e3output.xml">
        <detEntry lane="-10011302_0" pos="89.53"/>
        <detEntry lane="-10011302_1" pos="89.53"/>
        <detEntry lane="-446588_0" pos="299.15"/>
        <detEntry lane="-446588_1" pos="299.15"/>
        <detEntry lane="-446589_0" pos="31.37"/>
        <detEntry lane="-446589_1" pos="31.37"/>
        <detEntry lane="-446606_0" pos="175.16"/>
        <detEntry lane="-446606_1" pos="175.16"/>
        <detExit lane="-446643_0" pos="-.1"/>
        <detExit lane="-446643_1" pos="-.1"/>
    </e3Detector>
    <e3Detector id="e3_13458916_14677748" freq="5" file="e3output.xml">
        <detEntry lane="14677748_0" pos="58.15"/>
        <detEntry lane="14677748_1" pos="58.15"/>
        <detExit lane="14677748_0" pos="-.1"/>
        <detExit lane="14677748_1" pos="-.1"/>
    </e3Detector>
    <e3Detector id="e3_13458709_-446613" freq="5" file="e3output.xml">
        <detEntry lane="-10011070_0" pos="96.68"/>
        <detEntry lane="-10011070_1" pos="96.68"/>
        <detEntry lane="-30100733_0" pos="18.60"/>
        <detEntry lane="-30100733_1" pos="18.60"/>
        <detEntry lane="446610_0" pos="54.71"/>
        <detEntry lane="446610_1" pos="54.71"/>
        <detEntry lane="446633_0" pos="88.35"/>
        <detEntry lane="446633_1" pos="88.35"/>
        <detExit lane="-446613_0" pos="-.1"/>
        <detExit lane="-446613_1" pos="-.1"/>
    </e3Detector>
    <e3Detector id="e3_13458709_10011046" freq="5" file="e3output.xml">
        <detEntry lane="-30074319_0" pos="34.39"/>
        <detEntry lane="-30074319_1" pos="34.39"/>
        <detEntry lane="-446590_0" pos="61.85"/>
        <detEntry lane="-446590_1" pos="61.85"/>
        <detEntry lane="-446614_0" pos="34.39"/>
        <detEntry lane="-446614_1" pos="34.39"/>
        <detEntry lane="10011070_0" pos="54.93"/>
        <detEntry lane="10011070_1" pos="54.93"/>
        <detEntry lane="446591_0" pos="32.75"/>
        <detEntry lane="446591_1" pos="32.75"/>
        <detEntry lane="7210916_0" pos="53.65"/>
        <detEntry lane="7210916_1" pos="53.65"/>
        <detExit lane="10011046_0" pos="-.1"/>
        <detExit lane="10011046_1" pos="-.1"/>
    </e3Detector>
    <e3Detector id="e3_13458709_446638" freq="5" file="e3output.xml">
        <detEntry lane="-14113312_0" pos="44.15"/>
        <detEntry lane="-14113312_1" pos="44.15"/>
        <detEntry lane="-30119450_0" pos="0.20"/>
        <detEntry lane="-30119450_1" pos="0.20"/>
        <detEntry lane="-446635_0" pos="73.64"/>
        <detEntry lane="-446635_1" pos="73.64"/>
        <detEntry lane="-446641_0" pos="60.86"/>
        <detEntry lane="-446641_1" pos="60.86"/>
        <detEntry lane="10011025_0" pos="69.69"/>
        <detEntry lane="10011025_1" pos="69.69"/>
        <detEntry lane="14113229_0" pos="35.19"/>
        <detEntry lane="14113229_1" pos="35.19"/>
        <detEntry lane="30119451_0" pos="13.51"/>
        <detEntry lane="30119451_1" pos="13.51"/>
        <detEntry lane="446641_0" pos="8.43"/>
        <detEntry lane="446641_1" pos="8.43"/>
        <detExit lane="446638_0" pos="-.1"/>
        <detExit lane="446638_1" pos="-.1"/>
    </e3Detector>
    <e3Detector id="e3_13458718_-10011046" freq="5" file="e3output.xml">
        <detEntry lane="-10011144_0" pos="19.69"/>
        <detEntry lane="-10011144_1" pos="19.69"/>
        <detEntry lane="-14113312_0" pos="94.06"/>
        <detEntry lane="-14113312_1" pos="94.06"/>
        <detEntry lane="-30119450_0" pos="0.20"/>
        <detEntry lane="-30119450_1" pos="0.20"/>
        <detEntry lane="-446636_0" pos="47.80"/>
        <detEntry lane="-446636_1" pos="47.80"/>
        <detEntry lane="14113229_0" pos="85.10"/>
        <detEntry lane="14113229_1" pos="85.10"/>
        <detEntry lane="446605_0" pos="18.59"/>
        <detEntry lane="446605_1" pos="18.59"/>
        <detEntry lane="446641_0" pos="58.34"/>
        <detEntry lane="446641_1" pos="58.34"/>
        <detEntry lane="446642_0" pos="22.63"/>
        <detEntry lane="446642_1" pos="22.63"/>
        <detExit lane="-10011046_0" pos="-.1"/>
        <detExit lane="-10011046_1" pos="-.1"/>
    </e3Detector>
    <e3Detector id="e3_13458718_30074319" freq="5" file="e3output.xml">
        <detEntry lane="-10011046_0" pos="34.39"/>
        <detEntry lane="-10011046_1" pos="34.39"/>
        <detEntry lane="-446590_0" pos="51.34"/>
        <detEntry lane="-446590_1" pos="51.34"/>
        <detEntry lane="10011087_0" pos="9.78"/>
        <detEntry lane="10011087_1" pos="9.78"/>
        <detEntry lane="446591_0" pos="22.24"/>
        <detEntry lane="446591_1" pos="22.24"/>
        <detExit lane="30074319_0" pos="-.1"/>
        <detExit lane="30074319_1" pos="-.1"/>
    </e3Detector>
    <e3Detector id="e3_13458718_446614" freq="5" file="e3output.xml">
        <detEntry lane="-10011046_0" pos="34.39"/>
        <detEntry lane="-10011046_1" pos="34.39"/>
        <detEntry lane="-446576_0" pos="57.92"/>
        <detEntry lane="-446576_1" pos="57.92"/>
        <detEntry lane="-446590_0" pos="11.94"/>
        <detEntry lane="-446590_1" pos="11.94"/>
        <detEntry lane="10011070_0" pos="5.02"/>
        <detEntry lane="10011070_1" pos="5.02"/>
        <detEntry lane="446577_0" pos="40.84"/>
        <detEntry lane="446577_1" pos="40.84"/>
        <detEntry lane="7210916_0" pos="3.74"/>
        <detEntry lane="7210916_1" pos="3.74"/>
        <detExit lane="446614_0" pos="-.1"/>
        <detExit lane="446614_1" pos="-.1"/>
    </e3Detector>
    <e3Detector id="e3_13458570_-10011087" freq="5" file="e3output.xml">
        <detEntry lane="-30074319_0" pos="9.78"/>
        <detEntry lane="-30074319_1" pos="9.78"/>
        <detEntry lane="-446590_0" pos="37.24"/>
        <detEntry lane="-446590_1" pos="37.24"/>
        <detEntry lane="-446613_0" pos="70.87"/>
        <detEntry lane="-446613_1" pos="70.87"/>
        <detEntry lane="30074319_0" pos="15.06"/>
        <detEntry lane="30074319_1" pos="15.06"/>
        <detEntry lane="446591_0" pos="8.14"/>
        <detEntry lane="446591_1" pos="8.14"/>
        <detEntry lane="446638_0" pos="24.62"/>
        <detEntry lane="446638_1" pos="24.62"/>
        <detExit lane="-10011087_0" pos="-.1"/>
        <detExit lane="-10011087_1" pos="-.1"/>
    </e3Detector>
    <e3Detector id="e3_13458570_10011070" freq="5" file="e3output.xml">
        <detEntry lane="-10011118_0" pos="6.23"/>
        <detEntry lane="-10011118_1" pos="6.23"/>
        <detEntry lane="-7210916_0" pos="57.18"/>
        <detEntry lane="-7210916_1" pos="57.18"/>
        <detEntry lane="446605_0" pos="29.68"/>
        <detEntry lane="446605_1" pos="29.68"/>
        <detEntry lane="446613_0" pos="96.68"/>
        <detEntry lane="446613_1" pos="96.68"/>
        <detExit lane="10011070_0" pos="-.1"/>
        <detExit lane="10011070_1" pos="-.1"/>
    </e3Detector>
    <e3Detector id="e3_13458570_7210916" freq="5" file="e3output.xml">
        <detEntry lane="-10011070_0" pos="57.18"/>
        <detEntry lane="-10011070_1" pos="57.18"/>
        <detEntry lane="-446574_0" pos="65.21"/>
        <detEntry lane="-446574_1" pos="65.21"/>
        <detEntry lane="-446577_0" pos="8.29"/>
        <detEntry lane="-446577_1" pos="8.29"/>
        <detEntry lane="10011144_0" pos="7.22"/>
        <detEntry lane="10011144_1" pos="7.22"/>
        <detExit lane="7210916_0" pos="-.1"/>
        <detExit lane="7210916_1" pos="-.1"/>
    </e3Detector>
    <e3Detector id="e3_13458484_-10011070" freq="5" file="e3output.xml">
        <detEntry lane="-30074319_0" pos="136.68"/>
        <detEntry lane="-30074319_1" pos="136.68"/>
        <detEntry lane="-446614_0" pos="5.02"/>
        <detEntry lane="-446614_1" pos="5.02"/>
        <detEntry lane="446601_0" pos="53.46"/>
        <detEntry lane="446601_1" pos="53.46"/>
        <detEntry lane="7210916_0" pos="2.52"/>
        <detEntry lane="7210916_1" pos="2.52"/>
        <detExit lane="-10011070_0" pos="-.1"/>
        <detExit lane="-10011070_1" pos="-.1"/>
    </e3Detector>
    <e3Detector id="e3_13458484_-30100732" freq="5" file="e3output.xml">
        <detEntry lane="-10011087_0" pos="6.99"/>
        <detEntry lane="-10011087_1" pos="6.99"/>
        <detEntry lane="-446551_0" pos="30.86"/>
        <detEntry lane="-446551_1" pos="30.86"/>
        <detEntry lane="-446552_0" pos="191.92"/>
        <detEntry lane="-446552_1" pos="191.92"/>
        <detEntry lane="-446576_0" pos="12.41"/>
        <detEntry lane="-446576_1" pos="12.41"/>
        <detEntry lane="-446591_0" pos="18.91"/>
        <detEntry lane="-446591_1" pos="18.91"/>
        <detEntry lane="10011070_0" pos="57.18"/>
        <detEntry lane="10011070_1" pos="57.18"/>
        <detEntry lane="30100748_0" pos="75.48"/>
        <detEntry lane="30100748_1" pos="75.48"/>
        <detExit lane="-30100732_0" pos="-.1"/>
        <detExit lane="-30100732_1" pos="-.1"/>
    </e3Detector>
    <e3Detector id="e3_13458484_10011144" freq="5" file="e3output.xml">
        <detEntry lane="-446609_0" pos="195.44"/>
        <detEntry lane="-446609_1" pos="195.44"/>
        <detEntry lane="10011046_0" pos="19.69"/>
        <detEntry lane="10011046_1" pos="19.69"/>
        <detEntry lane="446633_0" pos="22.45"/>
        <detEntry lane="446633_1" pos="22.45"/>
        <detEntry lane="446638_0" pos="66.37"/>
        <detEntry lane="446638_1" pos="66.37"/>
        <detExit lane="10011144_0" pos="-.1"/>
        <detExit lane="10011144_1" pos="-.1"/>
    </e3Detector>
    <e3Detector id="e3_13458635_-446614" freq="5" file="e3output.xml">
        <detEntry lane="-10011144_0" pos="71.10"/>
        <detEntry lane="-10011144_1" pos="71.10"/>
        <detEntry lane="-446590_0" pos="102.75"/>
        <detEntry lane="-446590_1" pos="102.75"/>
        <detEntry lane="-446639_0" pos="21.88"/>
        <detEntry lane="-446639_1" pos="21.88"/>
        <detEntry lane="10011087_0" pos="61.19"/>
        <detEntry lane="10011087_1" pos="61.19"/>
        <detEntry lane="14113230_0" pos="42.59"/>
        <detEntry lane="14113230_1" pos="42.59"/>
        <detEntry lane="446591_0" pos="73.65"/>
        <detEntry lane="446591_1" pos="73.65"/>
        <detEntry lane="446605_0" pos="70.00"/>
        <detEntry lane="446605_1" pos="70.00"/>
        <detEntry lane="446640_0" pos="21.61"/>
        <detEntry lane="446640_1" pos="21.61"/>
        <detExit lane="-446614_0" pos="-.1"/>
        <detExit lane="-446614_1" pos="-.1"/>
    </e3Detector>
    <e3Detector id="e3_13458635_10011087" freq="5" file="e3output.xml">
        <detEntry lane="-10011118_0" pos="27.00"/>
        <detEntry lane="-10011118_1" pos="27.00"/>
        <detEntry lane="-30100733_0" pos="2.43"/>
        <detEntry lane="-30100733_1" pos="2.43"/>
        <detEntry lane="10011144_0" pos="30.55"/>
        <detEntry lane="10011144_1" pos="30.55"/>
        <detEntry lane="30100732_0" pos="6.99"/>
        <detEntry lane="30100732_1" pos="6.99"/>
        <detExit lane="10011087_0" pos="-.1"/>
        <detExit lane="10011087_1" pos="-.1"/>
    </e3Detector>
    <e3Detector id="e3_13458635_446603" freq="5" file="e3output.xml">
        <detEntry lane="-446574_0" pos="104.35"/>
        <detEntry lane="-446574_1" pos="104.35"/>
        <detEntry lane="-446576_0" pos="6.51"/>
        <detEntry lane="-446576_1" pos="6.51"/>
        <detEntry lane="-446586_0" pos="12.49"/>
        <detEntry lane="-446586_1" pos="12.49"/>
        <detEntry lane="-446588_0" pos="302.61"/>
        <detEntry lane="-446588_1" pos="302.61"/>
        <detEntry lane="-446613_0" pos="125.82"/>
        <detEntry lane="-446613_1" pos="125.82"/>
        <detEntry lane="10011087_0" pos="61.19"/>
        <detEntry lane="10011087_1" pos="61.19"/>
        <detEntry lane="10011118_0" pos="64.10"/>
        <detEntry lane="10011118_1" pos="64.10"/>
        <detEntry lane="446607_0" pos="85.51"/>
        <detEntry lane="446607_1" pos="85.51"/>
        <detEntry lane="446638_0" pos="79.57"/>
        <detEntry lane="446638_1" pos="79.57"/>
        <detExit lane="446603_0" pos="-.1"/>
        <detExit lane="446603_1" pos="-.1"/>
    </e3Detector>
    <e3Detector id="e3_13458370_-446574" freq="5" file="e3output.xml">
        <detEntry lane="-446551_0" pos="0.20"/>
        <detEntry lane="-446551_1" pos="0.20"/>
        <detEntry lane="-446552_0" pos="62.59"/>
        <detEntry lane="-446552_1" pos="62.59"/>
        <detEntry lane="-446561_0" pos="155.82"/>
        <detEntry lane="-446561_1" pos="155.82"/>
        <detEntry lane="10011231_0" pos="151.93"/>
        <detEntry lane="10011231_1" pos="151.93"/>
        <detExit lane="-446574_0" pos="-.1"/>
        <detExit lane="-446574_1" pos="-.1"/>
    </e3Detector>
    <e3Detector id="e3_13458370_-446577" freq="5" file="e3output.xml">
        <detEntry lane="-30074319_0" pos="80.24"/>
        <detEntry lane="-30074319_1" pos="80.24"/>
        <detEntry lane="-446576_0" pos="0.20"/>
        <detEntry lane="-446576_1" pos="0.20"/>
        <detEntry lane="-446590_0" pos="0.26"/>
        <detEntry lane="-446590_1" pos="0.26"/>
        <detEntry lane="-446614_0" pos="40.84"/>
        <detEntry lane="-446614_1" pos="40.84"/>
        <detEntry lane="10011087_0" pos="66.14"/>
        <detEntry lane="10011087_1" pos="66.14"/>
        <detExit lane="-446577_0" pos="-.1"/>
        <detExit lane="-446577_1" pos="-.1"/>
    </e3Detector>
    <e3Detector id="e3_13458370_10011118" freq="5" file="e3output.xml">
        <detEntry lane="-10011070_0" pos="6.23"/>
        <detEntry lane="-10011070_1" pos="6.23"/>
        <detEntry lane="-10011087_0" pos="27.00"/>
        <detEntry lane="-10011087_1" pos="27.00"/>
        <detEntry lane="10011070_0" pos="77.19"/>
        <detEntry lane="10011070_1" pos="77.19"/>
        <detEntry lane="446605_0" pos="32.11"/>
        <detEntry lane="446605_1" pos="32.11"/>
        <detEntry lane="446613_0" pos="99.11"/>
        <detEntry lane="446613_1" pos="99.11"/>
        <detExit lane="10011118_0" pos="-.1"/>
        <detExit lane="10011118_1" pos="-.1"/>
    </e3Detector>
    <e3Detector id="e3_13458422_-10011118" freq="5" file="e3output.xml">
        <detEntry lane="-446551_0" pos="0.20"/>
        <detEntry lane="-446551_1" pos="0.20"/>
        <detEntry lane="-446552_0" pos="137.26"/>
        <detEntry lane="-446552_1" pos="137.26"/>
        <detEntry lane="-446576_0" pos="0.20"/>
        <detEntry lane="-446576_1" pos="0.20"/>
        <detEntry lane="-446590_0" pos="74.93"/>
        <detEntry lane="-446590_1" pos="74.93"/>
        <detEntry lane="-446601_0" pos="17.97"/>
        <detEntry lane="-446601_1" pos="17.97"/>
        <detEntry lane="30100748_0" pos="20.82"/>
        <detEntry lane="30100748_1" pos="20.82"/>
        <detExit lane="-10011118_0" pos="-.1"/>
        <detExit lane="-10011118_1" pos="-.1"/>
    </e3Detector>
    <e3Detector id="e3_13458422_-7210916" freq="5" file="e3output.xml">
        <detEntry lane="-30074319_0" pos="135.40"/>
        <detEntry lane="-30074319_1" pos="135.40"/>
        <detEntry lane="-446614_0" pos="3.74"/>
        <detEntry lane="-446614_1" pos="3.74"/>
        <detEntry lane="10011070_0" pos="2.52"/>
        <detEntry lane="10011070_1" pos="2.52"/>
        <detEntry lane="446601_0" pos="52.18"/>
        <detEntry lane="446601_1" pos="52.18"/>
        <detExit lane="-7210916_0" pos="-.1"/>
        <detExit lane="-7210916_1" pos="-.1"/>
    </e3Detector>
    <e3Detector id="e3_13458422_30100730" freq="5" file="e3output.xml">
        <detEntry lane="-10011087_0" pos="8.27"/>
        <detEntry lane="-10011087_1" pos="8.27"/>
        <detEntry lane="446610_0" pos="43.47"/>
        <detEntry lane="446610_1" pos="43.47"/>
        <detEntry lane="446613_0" pos="24.44"/>
        <detEntry lane="446613_1" pos="24.44"/>
        <detEntry lane="446633_0" pos="77.11"/>
        <detEntry lane="446633_1" pos="77.11"/>
        <detEntry lane="7210916_0" pos="57.18"/>
        <detEntry lane="7210916_1" pos="57.18"/>
        <detExit lane="30100730_0" pos="-.1"/>
        <detExit lane="30100730_1" pos="-.1"/>
    </e3Detector>
    <e3Detector id="e3_13458616_-10011144" freq="5" file="e3output.xml">
        <detEntry lane="-10011087_0" pos="30.55"/>
        <detEntry lane="-10011087_1" pos="30.55"/>
        <detEntry lane="-446574_0" pos="71.19"/>
        <detEntry lane="-446574_1" pos="71.19"/>
        <detEntry lane="-446577_0" pos="14.27"/>
        <detEntry lane="-446577_1" pos="14.27"/>
        <detEntry lane="-7210916_0" pos="7.22"/>
        <detEntry lane="-7210916_1" pos="7.22"/>
        <detEntry lane="7210916_0" pos="79.46"/>
        <detEntry lane="7210916_1" pos="79.46"/>
        <detExit lane="-10011144_0" pos="-.1"/>
        <detExit lane="-10011144_1" pos="-.1"/>
    </e3Detector>
    <e3Detector id="e3_13458616_446605" freq="5" file="e3output.xml">
        <detEntry lane="-20045795_0" pos="91.33"/>
        <detEntry lane="-20045795_1" pos="91.33"/>
        <detEntry lane="-446609_0" pos="118.50"/>
        <detEntry lane="-446609_1" pos="118.50"/>
        <detEntry lane="14113222_0" pos="40.96"/>
        <detEntry lane="14113222_1" pos="40.96"/>
        <detEntry lane="14113304_0" pos="64.80"/>
        <detEntry lane="14113304_1" pos="64.80"/>
        <detEntry lane="446635_0" pos="21.26"/>
        <detEntry lane="446635_1" pos="21.26"/>
        <detExit lane="446605_0" pos="-.1"/>
        <detExit lane="446605_1" pos="-.1"/>
    </e3Detector>
    <e3Detector id="e3_13458616_446613" freq="5" file="e3output.xml">
        <detEntry lane="-446639_0" pos="63.40"/>
        <detEntry lane="-446639_1" pos="63.40"/>
        <detEntry lane="10011087_0" pos="70.87"/>
        <detEntry lane="10011087_1" pos="70.87"/>
        <detEntry lane="14113230_0" pos="84.11"/>
        <detEntry lane="14113230_1" pos="84.11"/>
        <detEntry lane="30074319_0" pos="79.69"/>
        <detEntry lane="30074319_1" pos="79.69"/>
        <detEntry lane="446603_0" pos="40.29"/>
        <detEntry lane="446603_1" pos="40.29"/>
        <detEntry lane="446640_0" pos="63.13"/>
        <detEntry lane="446640_1" pos="63.13"/>
        <detExit lane="446613_0" pos="-.1"/>
        <detExit lane="446613_1" pos="-.1"/>
    </e3Detector>
    <e3Detector id="e3_13458121_-446535" freq="5" file="e3output.xml">
        <detEntry lane="-10011359_0" pos="0.20"/>
        <detEntry lane="-10011359_1" pos="0.20"/>
        <detEntry lane="-446497_0" pos="156.75"/>
        <detEntry lane="-446497_1" pos="156.75"/>
        <detEntry lane="-446513_0" pos="111.64"/>
        <detEntry lane="-446513_1" pos="111.64"/>
        <detExit lane="-446535_0" pos="-.1"/>
        <detExit lane="-446535_1" pos="-.1"/>
    </e3Detector>
    <e3Detector id="e3_13458121_10011188" freq="5" file="e3output.xml">
        <detEntry lane="-446553_0" pos="260.17"/>
        <detEntry lane="-446553_1" pos="260.17"/>
        <detEntry lane="-446572_0" pos="278.29"/>
        <detEntry lane="-446572_1" pos="278.29"/>
        <detEntry lane="446589_0" pos="35.70"/>
        <detEntry lane="446589_1" pos="35.70"/>
        <detEntry lane="446590_0" pos="109.23"/>
        <detEntry lane="446590_1" pos="109.23"/>
        <detExit lane="10011188_0" pos="-.1"/>
        <detExit lane="10011188_1" pos="-.1"/>
    </e3Detector>
    <e3Detector id="e3_13458121_446553" freq="5" file="e3output.xml">
        <detEntry lane="446553_0" pos="163.20"/>
        <detEntry lane="446553_1" pos="163.20"/>
        <detExit lane="446553_0" pos="-.1"/>
        <detExit lane="446553_1" pos="-.1"/>
    </e3Detector>
    <e3Detector id="e3_13458227_-10011188" freq="5" file="e3output.xml">
        <detEntry lane="-10011359_0" pos="38.89"/>
        <detEntry lane="-10011359_1" pos="38.89"/>
        <detEntry lane="-446507_0" pos="18.93"/>
        <detEntry lane="-446507_1" pos="18.93"/>
        <detEntry lane="446553_0" pos="260.17"/>
        <detEntry lane="446553_1" pos="260.17"/>
        <detExit lane="-10011188_0" pos="-.1"/>
        <detExit lane="-10011188_1" pos="-.1"/>
    </e3Detector>
    <e3Detector id="e3_13458227_-446553" freq="5" file="e3output.xml">
        <detEntry lane="-446553_0" pos="163.20"/>
        <detEntry lane="-446553_1" pos="163.20"/>
        <detExit lane="-446553_0" pos="-.1"/>
        <detExit lane="-446553_1" pos="-.1"/>
    </e3Detector>
    <e3Detector id="e3_13458227_10011214" freq="5" file="e3output.xml">
        <detEntry lane="-446572_0" pos="181.32"/>
        <detEntry lane="-446572_1" pos="181.32"/>