<additional xmlns:xsi="http://www.w3.org/2001/XMLSchema-instance" xsi:noNamespaceSchemaLocation="http://sumo.dlr.de/xsd/additional_file.xsd">
    <laneAreaDetector file="e2output.xml" freq="5" friendlyPos="x" id="e2det_-10011025_0" lane="-10011025_0" length="96.87" pos="0"/>
    <laneAreaDetector file="e2output.xml" freq="5" friendlyPos="x" id="e2det_-10011025_1" lane="-10011025_1" length="96.87" pos="0"/>
    <laneAreaDetector file="e2output.xml" freq="5" friendlyPos="x" id="e2det_-446643_0" lane="-446643_0" length="69.18" pos="0"/>
    <laneAreaDetector file="e2output.xml" freq="5" friendlyPos="x" id="e2det_-446643_1" lane="-446643_1" length="69.18" pos="0"/>
    <laneAreaDetector file="e2output.xml" freq="5" friendlyPos="x" id="e2det_14677748_0" lane="14677748_0" length="250" pos="58.049999999999976"/>
    <laneAreaDetector file="e2output.xml" freq="5" friendlyPos="x" id="e2det_14677748_1" lane="14677748_1" length="250" pos="58.049999999999976"/>
    <laneAreaDetector file="e2output.xml" freq="5" friendlyPos="x" id="e2det_-11743068_0" lane="-11743068_0" length="180.17000000000002" pos="0"/>
    <laneAreaDetector file="e2output.xml" freq="5" friendlyPos="x" id="e2det_-11743068_1" lane="-11743068_1" length="180.17000000000002" pos="0"/>
    <laneAreaDetector file="e2output.xml" freq="5" friendlyPos="x" id="e2det_-11743068_2" lane="-11743068_2" length="180.17000000000002" pos="0"/>
    <laneAreaDetector file="e2output.xml" freq="5" friendlyPos="x" id="e2det_-11743068_3" lane="-11743068_3" length="180.17000000000002" pos="0"/>
    <laneAreaDetector file="e2output.xml" freq="5" friendlyPos="x" id="e2det_-20054939_0" lane="-20054939_0" length="39.74" pos="1.4155343563970746e-15"/>
    <laneAreaDetector file="e2output.xml" freq="5" friendlyPos="x" id="e2det_-20054939_1" lane="-20054939_1" length="39.74" pos="1.4155343563970746e-15"/>
    <laneAreaDetector file="e2output.xml" freq="5" friendlyPos="x" id="e2det_-20054939_2" lane="-20054939_2" length="39.74" pos="1.4155343563970746e-15"/>
    <laneAreaDetector file="e2output.xml" freq="5" friendlyPos="x" id="e2det_-20054939_3" lane="-20054939_3" length="39.74" pos="1.4155343563970746e-15"/>
    <laneAreaDetector file="e2output.xml" freq="5" friendlyPos="x" id="e2det_6088358_0" lane="6088358_0" length="68.29" pos="0"/>
    <laneAreaDetector file="e2output.xml" freq="5" friendlyPos="x" id="e2det_6088358_1" lane="6088358_1" length="68.29" pos="0"/>
    <laneAreaDetector file="e2output.xml" freq="5" friendlyPos="x" id="e2det_6088358_2" lane="6088358_2" length="68.29" pos="0"/>
    <laneAreaDetector file="e2output.xml" freq="5" friendlyPos="x" id="e2det_6088358_3" lane="6088358_3" length="68.29" pos="0"/>
    <laneAreaDetector file="e2output.xml" freq="5" friendlyPos="x" id="e2det_9796780_0" lane="9796780_0" length="93.07000000000001" pos="0"/>
    <laneAreaDetector file="e2output.xml" freq="5" friendlyPos="x" id="e2det_9796780_1" lane="9796780_1" length="93.07000000000001" pos="0"/>
    <laneAreaDetector file="e2output.xml" freq="5" friendlyPos="x" id="e2det_9796780_2" lane="9796780_2" length="93.07000000000001" pos="0"/>
    <laneAreaDetector file="e2output.xml" freq="5" friendlyPos="x" id="e2det_9796780_3" lane="9796780_3" length="93.07000000000001" pos="0"/>
    <laneAreaDetector file="e2output.xml" freq="5" friendlyPos="x" id="e2det_-13291670_0" lane="-13291670_0" length="123.35000000000001" pos="0"/>
    <laneAreaDetector file="e2output.xml" freq="5" friendlyPos="x" id="e2det_-13291670_1" lane="-13291670_1" length="123.35000000000001" pos="0"/>
    <laneAreaDetector file="e2output.xml" freq="5" friendlyPos="x" id="e2det_-13291670_2" lane="-13291670_2" length="123.35000000000001" pos="0"/>
    <laneAreaDetector file="e2output.xml" freq="5" friendlyPos="x" id="e2det_-13291670_3" lane="-13291670_3" length="123.35000000000001" pos="0"/>
    <laneAreaDetector file="e2output.xml" freq="5" friendlyPos="x" id="e2det_-8041145_0" lane="-8041145_0" length="250" pos="50.40999999999999"/>
    <laneAreaDetector file="e2output.xml" freq="5" friendlyPos="x" id="e2det_-8041145_1" lane="-8041145_1" length="250" pos="50.40999999999999"/>
    <laneAreaDetector file="e2output.xml" freq="5" friendlyPos="x" id="e2det_446032_0" lane="446032_0" length="80.89" pos="0"/>
    <laneAreaDetector file="e2output.xml" freq="5" friendlyPos="x" id="e2det_446032_1" lane="446032_1" length="80.89" pos="0"/>
    <laneAreaDetector file="e2output.xml" freq="5" friendlyPos="x" id="e2det_446032_2" lane="446032_2" length="80.89" pos="0"/>
    <laneAreaDetector file="e2output.xml" freq="5" friendlyPos="x" id="e2det_446032_3" lane="446032_3" length="80.89" pos="0"/>
    <laneAreaDetector file="e2output.xml" freq="5" friendlyPos="x" id="e2det_-30097066_0" lane="-30097066_0" length="207.18" pos="0"/>
    <laneAreaDetector file="e2output.xml" freq="5" friendlyPos="x" id="e2det_-30097066_1" lane="-30097066_1" length="207.18" pos="0"/>
    <laneAreaDetector file="e2output.xml" freq="5" friendlyPos="x" id="e2det_-30097066_2" lane="-30097066_2" length="207.18" pos="0"/>
    <laneAreaDetector file="e2output.xml" freq="5" friendlyPos="x" id="e2det_-30097066_3" lane="-30097066_3" length="207.18" pos="0"/>
    <laneAreaDetector file="e2output.xml" freq="5" friendlyPos="x" id="e2det_-446299_0" lane="-446299_0" length="119.97" pos="0"/>
    <laneAreaDetector file="e2output.xml" freq="5" friendlyPos="x" id="e2det_-446299_1" lane="-446299_1" length="119.97" pos="0"/>
    <laneAreaDetector file="e2output.xml" freq="5" friendlyPos="x" id="e2det_9796670_0" lane="9796670_0" length="250" pos="124.59"/>
    <laneAreaDetector file="e2output.xml" freq="5" friendlyPos="x" id="e2det_9796670_1" lane="9796670_1" length="250" pos="124.59"/>
    <laneAreaDetector file="e2output.xml" freq="5" friendlyPos="x" id="e2det_9796670_2" lane="9796670_2" length="250" pos="124.59"/>
    <laneAreaDetector file="e2output.xml" freq="5" friendlyPos="x" id="e2det_9796670_3" lane="9796670_3" length="250" pos="124.59"/>
    <laneAreaDetector file="e2output.xml" freq="5" friendlyPos="x" id="e2det_-30119451_0" lane="-30119451_0" length="15.52" pos="0"/>
    <laneAreaDetector file="e2output.xml" freq="5" friendlyPos="x" id="e2det_-30119451_1" lane="-30119451_1" length="15.52" pos="0"/>
    <laneAreaDetector file="e2output.xml" freq="5" friendlyPos="x" id="e2det_30119450_0" lane="30119450_0" length="28.68" pos="1.4155343563970746e-15"/>
    <laneAreaDetector file="e2output.xml" freq="5" friendlyPos="x" id="e2det_30119450_1" lane="30119450_1" length="28.68" pos="1.4155343563970746e-15"/>
    <laneAreaDetector file="e2output.xml" freq="5" friendlyPos="x" id="e2det_-446206_0" lane="-446206_0" length="250" pos="58.46999999999999"/>
    <laneAreaDetector file="e2output.xml" freq="5" friendlyPos="x" id="e2det_-446206_1" lane="-446206_1" length="250" pos="58.46999999999999"/>
    <laneAreaDetector file="e2output.xml" freq="5" friendlyPos="x" id="e2det_-446206_2" lane="-446206_2" length="250" pos="58.46999999999999"/>
    <laneAreaDetector file="e2output.xml" freq="5" friendlyPos="x" id="e2det_-446206_3" lane="-446206_3" length="250" pos="58.46999999999999"/>
    <laneAreaDetector file="e2output.xml" freq="5" friendlyPos="x" id="e2det_-9531103_0" lane="-9531103_0" length="93.75" pos="0"/>
    <laneAreaDetector file="e2output.xml" freq="5" friendlyPos="x" id="e2det_-9531103_1" lane="-9531103_1" length="93.75" pos="0"/>
    <laneAreaDetector file="e2output.xml" freq="5" friendlyPos="x" id="e2det_13291693_0" lane="13291693_0" length="99.55000000000001" pos="0"/>
    <laneAreaDetector file="e2output.xml" freq="5" friendlyPos="x" id="e2det_13291693_1" lane="13291693_1" length="99.55000000000001" pos="0"/>
    <laneAreaDetector file="e2output.xml" freq="5" friendlyPos="x" id="e2det_13291693_2" lane="13291693_2" length="99.55000000000001" pos="0"/>
    <laneAreaDetector file="e2output.xml" freq="5" friendlyPos="x" id="e2det_13291693_3" lane="13291693_3" length="99.55000000000001" pos="0"/>
    <laneAreaDetector file="e2output.xml" freq="5" friendlyPos="x" id="e2det_-446207_0" lane="-446207_0" length="108.26" pos="0"/>
    <laneAreaDetector file="e2output.xml" freq="5" friendlyPos="x" id="e2det_-446207_1" lane="-446207_1" length="108.26" pos="0"/>
    <laneAreaDetector file="e2output.xml" freq="5" friendlyPos="x" id="e2det_-446207_2" lane="-446207_2" length="108.26" pos="0"/>
    <laneAreaDetector file="e2output.xml" freq="5" friendlyPos="x" id="e2det_-446207_3" lane="-446207_3" length="108.26" pos="0"/>
    <laneAreaDetector file="e2output.xml" freq="5" friendlyPos="x" id="e2det_-9796670_0" lane="-9796670_0" length="250" pos="124.59"/>
    <laneAreaDetector file="e2output.xml" freq="5" friendlyPos="x" id="e2det_-9796670_1" lane="-9796670_1" length="250" pos="124.59"/>
    <laneAreaDetector file="e2output.xml" freq="5" friendlyPos="x" id="e2det_-9796670_2" lane="-9796670_2" length="250" pos="124.59"/>
    <laneAreaDetector file="e2output.xml" freq="5" friendlyPos="x" id="e2det_-9796670_3" lane="-9796670_3" length="250" pos="124.59"/>
    <laneAreaDetector file="e2output.xml" freq="5" friendlyPos="x" id="e2det_446206_0" lane="446206_0" length="250" pos="58.46999999999999"/>
    <laneAreaDetector file="e2output.xml" freq="5" friendlyPos="x" id="e2det_446206_1" lane="446206_1" length="250" pos="58.46999999999999"/>
    <laneAreaDetector file="e2output.xml" freq="5" friendlyPos="x" id="e2det_446206_2" lane="446206_2" length="250" pos="58.46999999999999"/>
    <laneAreaDetector file="e2output.xml" freq="5" friendlyPos="x" id="e2det_446206_3" lane="446206_3" length="250" pos="58.46999999999999"/>
    <laneAreaDetector file="e2output.xml" freq="5" friendlyPos="x" id="e2det_446380_0" lane="446380_0" length="250" pos="28.489999999999974"/>
    <laneAreaDetector file="e2output.xml" freq="5" friendlyPos="x" id="e2det_446380_1" lane="446380_1" length="250" pos="28.489999999999974"/>
    <laneAreaDetector file="e2output.xml" freq="5" friendlyPos="x" id="e2det_446380_2" lane="446380_2" length="250" pos="28.489999999999974"/>
    <laneAreaDetector file="e2output.xml" freq="5" friendlyPos="x" id="e2det_446380_3" lane="446380_3" length="250" pos="28.489999999999974"/>
    <laneAreaDetector file="e2output.xml" freq="5" friendlyPos="x" id="e2det_-446378_0" lane="-446378_0" length="126.80000000000001" pos="0"/>
    <laneAreaDetector file="e2output.xml" freq="5" friendlyPos="x" id="e2det_-446378_1" lane="-446378_1" length="126.80000000000001" pos="0"/>
    <laneAreaDetector file="e2output.xml" freq="5" friendlyPos="x" id="e2det_-446402_0" lane="-446402_0" length="215.94" pos="0"/>
    <laneAreaDetector file="e2output.xml" freq="5" friendlyPos="x" id="e2det_-446402_1" lane="-446402_1" length="215.94" pos="0"/>
    <laneAreaDetector file="e2output.xml" freq="5" friendlyPos="x" id="e2det_-446402_2" lane="-446402_2" length="215.94" pos="0"/>
    <laneAreaDetector file="e2output.xml" freq="5" friendlyPos="x" id="e2det_-446402_3" lane="-446402_3" length="215.94" pos="0"/>
    <laneAreaDetector file="e2output.xml" freq="5" friendlyPos="x" id="e2det_30097067_0" lane="30097067_0" length="233.5" pos="0"/>
    <laneAreaDetector file="e2output.xml" freq="5" friendlyPos="x" id="e2det_30097067_1" lane="30097067_1" length="233.5" pos="0"/>
    <laneAreaDetector file="e2output.xml" freq="5" friendlyPos="x" id="e2det_30097067_2" lane="30097067_2" length="233.5" pos="0"/>
    <laneAreaDetector file="e2output.xml" freq="5" friendlyPos="x" id="e2det_30097067_3" lane="30097067_3" length="233.5" pos="0"/>
    <laneAreaDetector file="e2output.xml" freq="5" friendlyPos="x" id="e2det_7204532_0" lane="7204532_0" length="77.48" pos="0"/>
    <laneAreaDetector file="e2output.xml" freq="5" friendlyPos="x" id="e2det_7204532_1" lane="7204532_1" length="77.48" pos="0"/>
    <laneAreaDetector file="e2output.xml" freq="5" friendlyPos="x" id="e2det_-446453_0" lane="-446453_0" length="250" pos="121.50000000000003"/>
    <laneAreaDetector file="e2output.xml" freq="5" friendlyPos="x" id="e2det_-446453_1" lane="-446453_1" length="250" pos="121.50000000000003"/>
    <laneAreaDetector file="e2output.xml" freq="5" friendlyPos="x" id="e2det_-446454_0" lane="-446454_0" length="116.98" pos="0"/>
    <laneAreaDetector file="e2output.xml" freq="5" friendlyPos="x" id="e2det_-446454_1" lane="-446454_1" length="116.98" pos="0"/>
    <laneAreaDetector file="e2output.xml" freq="5" friendlyPos="x" id="e2det_-446454_2" lane="-446454_2" length="116.98" pos="0"/>
    <laneAreaDetector file="e2output.xml" freq="5" friendlyPos="x" id="e2det_-446454_3" lane="-446454_3" length="116.98" pos="0"/>
    <laneAreaDetector file="e2output.xml" freq="5" friendlyPos="x" id="e2det_446463_0" lane="446463_0" length="31.639999999999997" pos="1.4155343563970746e-15"/>
    <laneAreaDetector file="e2output.xml" freq="5" friendlyPos="x" id="e2det_446463_1" lane="446463_1" length="31.639999999999997" pos="1.4155343563970746e-15"/>
    <laneAreaDetector file="e2output.xml" freq="5" friendlyPos="x" id="e2det_446463_2" lane="446463_2" length="31.639999999999997" pos="1.4155343563970746e-15"/>
    <laneAreaDetector file="e2output.xml" freq="5" friendlyPos="x" id="e2det_446463_3" lane="446463_3" length="31.639999999999997" pos="1.4155343563970746e-15"/>
    <laneAreaDetector file="e2output.xml" freq="5" friendlyPos="x" id="e2det_-446546_0" lane="-446546_0" length="53.22" pos="1.4155343563970746e-15"/>
    <laneAreaDetector file="e2output.xml" freq="5" friendlyPos="x" id="e2det_-446546_1" lane="-446546_1" length="53.22" pos="1.4155343563970746e-15"/>
    <laneAreaDetector file="e2output.xml" freq="5" friendlyPos="x" id="e2det_5378127_0" lane="5378127_0" length="250" pos="298.74"/>
    <laneAreaDetector file="e2output.xml" freq="5" friendlyPos="x" id="e2det_5378127_1" lane="5378127_1" length="250" pos="298.74"/>
    <laneAreaDetector file="e2output.xml" freq="5" friendlyPos="x" id="e2det_5378151_0" lane="5378151_0" length="184.6" pos="0"/>
    <laneAreaDetector file="e2output.xml" freq="5" friendlyPos="x" id="e2det_5378151_1" lane="5378151_1" length="184.6" pos="0"/>
    <laneAreaDetector file="e2output.xml" freq="5" friendlyPos="x" id="e2det_-446584_0" lane="-446584_0" length="219.58" pos="0"/>
    <laneAreaDetector file="e2output.xml" freq="5" friendlyPos="x" id="e2det_-446584_1" lane="-446584_1" length="219.58" pos="0"/>
    <laneAreaDetector file="e2output.xml" freq="5" friendlyPos="x" id="e2det_-7497_0" lane="-7497_0" length="146.52" pos="0"/>
    <laneAreaDetector file="e2output.xml" freq="5" friendlyPos="x" id="e2det_-7497_1" lane="-7497_1" length="146.52" pos="0"/>
    <laneAreaDetector file="e2output.xml" freq="5" friendlyPos="x" id="e2det_-7497_2" lane="-7497_2" length="146.52" pos="0"/>
    <laneAreaDetector file="e2output.xml" freq="5" friendlyPos="x" id="e2det_-7497_3" lane="-7497_3" length="146.52" pos="0"/>
    <laneAreaDetector file="e2output.xml" freq="5" friendlyPos="x" id="e2det_446608_0" lane="446608_0" length="128.1" pos="0"/>
    <laneAreaDetector file="e2output.xml" freq="5" friendlyPos="x" id="e2det_446608_1" lane="446608_1" length="128.1" pos="0"/>
    <laneAreaDetector file="e2output.xml" freq="5" friendlyPos="x" id="e2det_446608_2" lane="446608_2" length="128.1" pos="0"/>
    <laneAreaDetector file="e2output.xml" freq="5" friendlyPos="x" id="e2det_446608_3" lane="446608_3" length="128.1" pos="0"/>
    <laneAreaDetector file="e2output.xml" freq="5" friendlyPos="x" id="e2det_-446629_0" lane="-446629_0" length="93.31" pos="0"/>
    <laneAreaDetector file="e2output.xml" freq="5" friendlyPos="x" id="e2det_-446629_1" lane="-446629_1" length="93.31" pos="0"/>
    <laneAreaDetector file="e2output.xml" freq="5" friendlyPos="x" id="e2det_-446629_2" lane="-446629_2" length="93.31" pos="0"/>
    <laneAreaDetector file="e2output.xml" freq="5" friendlyPos="x" id="e2det_-446629_3" lane="-446629_3" length="93.31" pos="0"/>
    <laneAreaDetector file="e2output.xml" freq="5" friendlyPos="x" id="e2det_30080155_0" lane="30080155_0" length="250" pos="1.2100000000000022"/>
    <laneAreaDetector file="e2output.xml" freq="5" friendlyPos="x" id="e2det_30080155_1" lane="30080155_1" length="250" pos="1.2100000000000022"/>
    <laneAreaDetector file="e2output.xml" freq="5" friendlyPos="x" id="e2det_446632_0" lane="446632_0" length="58.089999999999996" pos="1.4155343563970746e-15"/>
    <laneAreaDetector file="e2output.xml" freq="5" friendlyPos="x" id="e2det_446632_1" lane="446632_1" length="58.089999999999996" pos="1.4155343563970746e-15"/>
    <laneAreaDetector file="e2output.xml" freq="5" friendlyPos="x" id="e2det_7681_0" lane="7681_0" length="93.39" pos="0"/>
    <laneAreaDetector file="e2output.xml" freq="5" friendlyPos="x" id="e2det_7681_1" lane="7681_1" length="93.39" pos="0"/>
    <laneAreaDetector file="e2output.xml" freq="5" friendlyPos="x" id="e2det_7681_2" lane="7681_2" length="93.39" pos="0"/>
    <laneAreaDetector file="e2output.xml" freq="5" friendlyPos="x" id="e2det_7681_3" lane="7681_3" length="93.39" pos="0"/>
    <laneAreaDetector file="e2output.xml" freq="5" friendlyPos="x" id="e2det_-446662_0" lane="-446662_0" length="245.84" pos="0"/>
    <laneAreaDetector file="e2output.xml" freq="5" friendlyPos="x" id="e2det_-446662_1" lane="-446662_1" length="245.84" pos="0"/>
    <laneAreaDetector file="e2output.xml" freq="5" friendlyPos="x" id="e2det_446666_0" lane="446666_0" length="20.15" pos="1.4155343563970746e-15"/>
    <laneAreaDetector file="e2output.xml" freq="5" friendlyPos="x" id="e2det_446666_1" lane="446666_1" length="20.15" pos="1.4155343563970746e-15"/>
    <laneAreaDetector file="e2output.xml" freq="5" friendlyPos="x" id="e2det_5625788_0" lane="5625788_0" length="25.24" pos="1.4155343563970746e-15"/>
    <laneAreaDetector file="e2output.xml" freq="5" friendlyPos="x" id="e2det_5625788_1" lane="5625788_1" length="25.24" pos="1.4155343563970746e-15"/>
    <laneAreaDetector file="e2output.xml" freq="5" friendlyPos="x" id="e2det_-7206707_0" lane="-7206707_0" length="91.99000000000001" pos="0"/>
    <laneAreaDetector file="e2output.xml" freq="5" friendlyPos="x" id="e2det_-7206707_1" lane="-7206707_1" length="91.99000000000001" pos="0"/>
    <laneAreaDetector file="e2output.xml" freq="5" friendlyPos="x" id="e2det_-7829_0" lane="-7829_0" length="58.21" pos="1.4155343563970746e-15"/>
    <laneAreaDetector file="e2output.xml" freq="5" friendlyPos="x" id="e2det_-7829_1" lane="-7829_1" length="58.21" pos="1.4155343563970746e-15"/>
    <laneAreaDetector file="e2output.xml" freq="5" friendlyPos="x" id="e2det_-7436_0" lane="-7436_0" length="82.04" pos="0"/>
    <laneAreaDetector file="e2output.xml" freq="5" friendlyPos="x" id="e2det_-7436_1" lane="-7436_1" length="82.04" pos="0"/>
    <laneAreaDetector file="e2output.xml" freq="5" friendlyPos="x" id="e2det_-7436_2" lane="-7436_2" length="82.04" pos="0"/>
    <laneAreaDetector file="e2output.xml" freq="5" friendlyPos="x" id="e2det_-7436_3" lane="-7436_3" length="82.04" pos="0"/>
    <laneAreaDetector file="e2output.xml" freq="5" friendlyPos="x" id="e2det_7451_0" lane="7451_0" length="69.43" pos="0"/>
    <laneAreaDetector file="e2output.xml" freq="5" friendlyPos="x" id="e2det_7451_1" lane="7451_1" length="69.43" pos="0"/>
    <laneAreaDetector file="e2output.xml" freq="5" friendlyPos="x" id="e2det_7497_0" lane="7497_0" length="146.52" pos="0"/>
    <laneAreaDetector file="e2output.xml" freq="5" friendlyPos="x" id="e2det_7497_1" lane="7497_1" length="146.52" pos="0"/>
    <laneAreaDetector file="e2output.xml" freq="5" friendlyPos="x" id="e2det_7497_2" lane="7497_2" length="146.52" pos="0"/>
    <laneAreaDetector file="e2output.xml" freq="5" friendlyPos="x" id="e2det_7497_3" lane="7497_3" length="146.52" pos="0"/>
    <laneAreaDetector file="e2output.xml" freq="5" friendlyPos="x" id="e2det_-9085034_0" lane="-9085034_0" length="250" pos="1.5599999999999965"/>
    <laneAreaDetector file="e2output.xml" freq="5" friendlyPos="x" id="e2det_-9085034_1" lane="-9085034_1" length="250" pos="1.5599999999999965"/>
    <laneAreaDetector file="e2output.xml" freq="5" friendlyPos="x" id="e2det_-9085067_0" lane="-9085067_0" length="13.52" pos="0"/>
    <laneAreaDetector file="e2output.xml" freq="5" friendlyPos="x" id="e2det_-9085067_1" lane="-9085067_1" length="13.52" pos="0"/>
    <laneAreaDetector file="e2output.xml" freq="5" friendlyPos="x" id="e2det_-9085067_2" lane="-9085067_2" length="13.52" pos="0"/>
    <laneAreaDetector file="e2output.xml" freq="5" friendlyPos="x" id="e2det_-9085067_3" lane="-9085067_3" length="13.52" pos="0"/>
    <laneAreaDetector file="e2output.xml" freq="5" friendlyPos="x" id="e2det_12189744_0" lane="12189744_0" length="182.69" pos="0"/>
    <laneAreaDetector file="e2output.xml" freq="5" friendlyPos="x" id="e2det_12189744_1" lane="12189744_1" length="182.69" pos="0"/>
    <laneAreaDetector file="e2output.xml" freq="5" friendlyPos="x" id="e2det_12189744_2" lane="12189744_2" length="182.69" pos="0"/>
    <laneAreaDetector file="e2output.xml" freq="5" friendlyPos="x" id="e2det_12189744_3" lane="12189744_3" length="182.69" pos="0"/>
    <laneAreaDetector file="e2output.xml" freq="5" friendlyPos="x" id="e2det_-9796823_0" lane="-9796823_0" length="161.81" pos="0"/>
    <laneAreaDetector file="e2output.xml" freq="5" friendlyPos="x" id="e2det_-9796823_1" lane="-9796823_1" length="161.81" pos="0"/>
    <laneAreaDetector file="e2output.xml" freq="5" friendlyPos="x" id="e2det_-9796823_2" lane="-9796823_2" length="161.81" pos="0"/>
    <laneAreaDetector file="e2output.xml" freq="5" friendlyPos="x" id="e2det_-9796823_3" lane="-9796823_3" length="161.81" pos="0"/>
    <laneAreaDetector file="e2output.xml" freq="5" friendlyPos="x" id="e2det_446528_0" lane="446528_0" length="174.1" pos="0"/>
    <laneAreaDetector file="e2output.xml" freq="5" friendlyPos="x" id="e2det_446528_1" lane="446528_1" length="174.1" pos="0"/>
    <laneAreaDetector file="e2output.xml" freq="5" friendlyPos="x" id="e2det_9796840_0" lane="9796840_0" length="106.96000000000001" pos="0"/>
    <laneAreaDetector file="e2output.xml" freq="5" friendlyPos="x" id="e2det_9796840_1" lane="9796840_1" length="106.96000000000001" pos="0"/>
    <laneAreaDetector file="e2output.xml" freq="5" friendlyPos="x" id="e2det_9796840_2" lane="9796840_2" length="106.96000000000001" pos="0"/>
    <laneAreaDetector file="e2output.xml" freq="5" friendlyPos="x" id="e2det_9796840_3" lane="9796840_3" length="106.96000000000001" pos="0"/>
    <laneAreaDetector file="e2output.xml" freq="5" friendlyPos="x" id="e2det_-9796843_0" lane="-9796843_0" length="126.4" pos="0"/>
    <laneAreaDetector file="e2output.xml" freq="5" friendlyPos="x" id="e2det_-9796843_1" lane="-9796843_1" length="126.4" pos="0"/>
    <laneAreaDetector file="e2output.xml" freq="5" friendlyPos="x" id="e2det_-9796843_2" lane="-9796843_2" length="126.4" pos="0"/>
    <laneAreaDetector file="e2output.xml" freq="5" friendlyPos="x" id="e2det_-9796843_3" lane="-9796843_3" length="126.4" pos="0"/>
    <laneAreaDetector file="e2output.xml" freq="5" friendlyPos="x" id="e2det_446445_0" lane="446445_0" length="188.12" pos="0"/>
    <laneAreaDetector file="e2output.xml" freq="5" friendlyPos="x" id="e2det_446445_1" lane="446445_1" length="188.12" pos="0"/>
    <laneAreaDetector file="e2output.xml" freq="5" friendlyPos="x" id="e2det_446445_2" lane="446445_2" length="188.12" pos="0"/>
    <laneAreaDetector file="e2output.xml" freq="5" friendlyPos="x" id="e2det_446445_3" lane="446445_3" length="188.12" pos="0"/>
    <laneAreaDetector file="e2output.xml" freq="5" friendlyPos="x" id="e2det_446523_0" lane="446523_0" length="250" pos="258.81"/>
    <laneAreaDetector file="e2output.xml" freq="5" friendlyPos="x" id="e2det_446523_1" lane="446523_1" length="250" pos="258.81"/>
    <laneAreaDetector file="e2output.xml" freq="5" friendlyPos="x" id="e2det_446523_2" lane="446523_2" length="250" pos="258.81"/>
    <laneAreaDetector file="e2output.xml" freq="5" friendlyPos="x" id="e2det_446523_3" lane="446523_3" length="250" pos="258.81"/>
    <laneAreaDetector file="e2output.xml" freq="5" friendlyPos="x" id="e2det_-9796859_0" lane="-9796859_0" length="88.52000000000001" pos="0"/>
    <laneAreaDetector file="e2output.xml" freq="5" friendlyPos="x" id="e2det_-9796859_1" lane="-9796859_1" length="88.52000000000001" pos="0"/>
    <laneAreaDetector file="e2output.xml" freq="5" friendlyPos="x" id="e2det_-9796859_2" lane="-9796859_2" length="88.52000000000001" pos="0"/>
    <laneAreaDetector file="e2output.xml" freq="5" friendlyPos="x" id="e2det_-9796859_3" lane="-9796859_3" length="88.52000000000001" pos="0"/>
    <laneAreaDetector file="e2output.xml" freq="5" friendlyPos="x" id="e2det_446469_0" lane="446469_0" length="91.72" pos="0"/>
    <laneAreaDetector file="e2output.xml" freq="5" friendlyPos="x" id="e2det_446469_1" lane="446469_1" length="91.72" pos="0"/>
    <laneAreaDetector file="e2output.xml" freq="5" friendlyPos="x" id="e2det_446469_2" lane="446469_2" length="91.72" pos="0"/>
    <laneAreaDetector file="e2output.xml" freq="5" friendlyPos="x" id="e2det_446469_3" lane="446469_3" length="91.72" pos="0"/>
    <laneAreaDetector file="e2output.xml" freq="5" friendlyPos="x" id="e2det_446497_0" lane="446497_0" length="234.69" pos="0"/>
    <laneAreaDetector file="e2output.xml" freq="5" friendlyPos="x" id="e2det_446497_1" lane="446497_1" length="234.69" pos="0"/>
</additional>
