<additional xmlns:xsi="http://www.w3.org/2001/XMLSchema-instance" xsi:noNamespaceSchemaLocation="http://sumo.dlr.de/xsd/additional_file.xsd">
    <laneAreaDetector file="data/simulation_output/selected_junctions/e2output.xml" freq="5" friendlyPos="x" id="e2det_107587_0" lane="107587_0" length="108.11" pos="0"/>
    <laneAreaDetector file="data/simulation_output/selected_junctions/e2output.xml" freq="5" friendlyPos="x" id="e2det_107613_0" lane="107613_0" length="56.03" pos="1.4155343563970746e-15"/>
    <laneAreaDetector file="data/simulation_output/selected_junctions/e2output.xml" freq="5" friendlyPos="x" id="e2det_107613_1" lane="107613_1" length="56.03" pos="1.4155343563970746e-15"/>
    <laneAreaDetector file="data/simulation_output/selected_junctions/e2output.xml" freq="5" friendlyPos="x" id="e2det_107613_2" lane="107613_2" length="56.03" pos="1.4155343563970746e-15"/>
    <laneAreaDetector file="data/simulation_output/selected_junctions/e2output.xml" freq="5" friendlyPos="x" id="e2det_107766_0" lane="107766_0" length="220.3" pos="0"/>
    <laneAreaDetector file="data/simulation_output/selected_junctions/e2output.xml" freq="5" friendlyPos="x" id="e2det_107766_1" lane="107766_1" length="220.3" pos="0"/>
    <laneAreaDetector file="data/simulation_output/selected_junctions/e2output.xml" freq="5" friendlyPos="x" id="e2det_107766_2" lane="107766_2" length="220.3" pos="0"/>
    <laneAreaDetector file="data/simulation_output/selected_junctions/e2output.xml" freq="5" friendlyPos="x" id="e2det_20146477_0" lane="20146477_0" length="237.41" pos="0"/>
    <laneAreaDetector file="data/simulation_output/selected_junctions/e2output.xml" freq="5" friendlyPos="x" id="e2det_20146477_1" lane="20146477_1" length="237.41" pos="0"/>
    <laneAreaDetector file="data/simulation_output/selected_junctions/e2output.xml" freq="5" friendlyPos="x" id="e2det_108009_0" lane="108009_0" length="250" pos="100.88000000000002"/>
    <laneAreaDetector file="data/simulation_output/selected_junctions/e2output.xml" freq="5" friendlyPos="x" id="e2det_108009_1" lane="108009_1" length="250" pos="100.88000000000002"/>
    <laneAreaDetector file="data/simulation_output/selected_junctions/e2output.xml" freq="5" friendlyPos="x" id="e2det_7204482_0" lane="7204482_0" length="191.64000000000001" pos="0"/>
    <laneAreaDetector file="data/simulation_output/selected_junctions/e2output.xml" freq="5" friendlyPos="x" id="e2det_7204482_1" lane="7204482_1" length="191.64000000000001" pos="0"/>
    <laneAreaDetector file="data/simulation_output/selected_junctions/e2output.xml" freq="5" friendlyPos="x" id="e2det_7204482_2" lane="7204482_2" length="191.64000000000001" pos="0"/>
    <laneAreaDetector file="data/simulation_output/selected_junctions/e2output.xml" freq="5" friendlyPos="x" id="e2det_108322_0" lane="108322_0" length="198.68" pos="0"/>
    <laneAreaDetector file="data/simulation_output/selected_junctions/e2output.xml" freq="5" friendlyPos="x" id="e2det_108322_1" lane="108322_1" length="198.68" pos="0"/>
    <laneAreaDetector file="data/simulation_output/selected_junctions/e2output.xml" freq="5" friendlyPos="x" id="e2det_108322_2" lane="108322_2" length="198.68" pos="0"/>
    <laneAreaDetector file="data/simulation_output/selected_junctions/e2output.xml" freq="5" friendlyPos="x" id="e2det_6786837_0" lane="6786837_0" length="221.27" pos="0"/>
    <laneAreaDetector file="data/simulation_output/selected_junctions/e2output.xml" freq="5" friendlyPos="x" id="e2det_6786837_1" lane="6786837_1" length="221.27" pos="0"/>
    <laneAreaDetector file="data/simulation_output/selected_junctions/e2output.xml" freq="5" friendlyPos="x" id="e2det_6786837_2" lane="6786837_2" length="221.27" pos="0"/>
    <laneAreaDetector file="data/simulation_output/selected_junctions/e2output.xml" freq="5" friendlyPos="x" id="e2det_108429_0" lane="108429_0" length="143.46" pos="0"/>
    <laneAreaDetector file="data/simulation_output/selected_junctions/e2output.xml" freq="5" friendlyPos="x" id="e2det_108429_1" lane="108429_1" length="143.46" pos="0"/>
    <laneAreaDetector file="data/simulation_output/selected_junctions/e2output.xml" freq="5" friendlyPos="x" id="e2det_108429_2" lane="108429_2" length="143.46" pos="0"/>
    <laneAreaDetector file="data/simulation_output/selected_junctions/e2output.xml" freq="5" friendlyPos="x" id="e2det_108537_0" lane="108537_0" length="157.20000000000002" pos="0"/>
    <laneAreaDetector file="data/simulation_output/selected_junctions/e2output.xml" freq="5" friendlyPos="x" id="e2det_108537_1" lane="108537_1" length="157.20000000000002" pos="0"/>
    <laneAreaDetector file="data/simulation_output/selected_junctions/e2output.xml" freq="5" friendlyPos="x" id="e2det_108537_2" lane="108537_2" length="157.20000000000002" pos="0"/>
    <laneAreaDetector file="data/simulation_output/selected_junctions/e2output.xml" freq="5" friendlyPos="x" id="e2det_9638455_0" lane="9638455_0" length="250" pos="111.14000000000001"/>
    <laneAreaDetector file="data/simulation_output/selected_junctions/e2output.xml" freq="5" friendlyPos="x" id="e2det_9638455_1" lane="9638455_1" length="250" pos="111.14000000000001"/>
    <laneAreaDetector file="data/simulation_output/selected_junctions/e2output.xml" freq="5" friendlyPos="x" id="e2det_9638455_2" lane="9638455_2" length="250" pos="111.14000000000001"/>
</additional>
