<?xml version="1.0" encoding="UTF-8"?>

<!-- generated on 2024-10-24 12:56:57.347955 by routeSampler.py UNKNOWN
<configuration>
    <route-files value="data/processed/selected_junctions/initial_route_file_cars.rou.xml"/>
    <turn-files value="data/processed/selected_junctions/turning_movements_cars.xml"/>
    <output-file value="data/sumo_networks/selected_junctions/selected_junctions_cars_routes.rou.xml"/>
    <prefix value="cars"/>
    <begin value="28800"/>
    <end value="34200"/>
    <total-count value="2849"/>
</configuration>
-->

<routes xmlns:xsi="http://www.w3.org/2001/XMLSchema-instance" xsi:noNamespaceSchemaLocation="http://sumo.dlr.de/xsd/routes_file.xsd">
<!-- begin="28800.0" end="29700.0" -->
    <vehicle id="cars28800_0" depart="28804.17">
        <route edges="7204482 7204470"/>
    </vehicle>
    <vehicle id="cars28800_1" depart="28809.90">
        <route edges="108429 108388"/>
    </vehicle>
    <vehicle id="cars28800_2" depart="28811.70">
        <route edges="7204482 7204470"/>
    </vehicle>
    <vehicle id="cars28800_3" depart="28811.79">
        <route edges="107766 107598"/>
    </vehicle>
    <vehicle id="cars28800_4" depart="28816.30">
        <route edges="20146477 107597"/>
    </vehicle>
    <vehicle id="cars28800_5" depart="28816.55">
        <route edges="9638455 108322 3648605"/>
    </vehicle>
    <vehicle id="cars28800_6" depart="28817.74">
        <route edges="107766 107598"/>
    </vehicle>
    <vehicle id="cars28800_7" depart="28818.06">
        <route edges="108429 108388"/>
    </vehicle>
    <vehicle id="cars28800_8" depart="28820.22">
        <route edges="6786837 108126"/>
    </vehicle>
    <vehicle id="cars28800_9" depart="28822.85">
        <route edges="6786837 108126"/>
    </vehicle>
    <vehicle id="cars28800_10" depart="28823.88">
        <route edges="6786837 108126"/>
    </vehicle>
    <vehicle id="cars28800_11" depart="28824.39">
        <route edges="108322 108126"/>
    </vehicle>
    <vehicle id="cars28800_12" depart="28828.06">
        <route edges="107766 107598"/>
    </vehicle>
    <vehicle id="cars28800_13" depart="28830.18">
        <route edges="7204482 7204470"/>
    </vehicle>
    <vehicle id="cars28800_14" depart="28832.89">
        <route edges="107766 107597"/>
    </vehicle>
    <vehicle id="cars28800_15" depart="28833.01">
        <route edges="9638455 108322 3648605"/>
    </vehicle>
    <vehicle id="cars28800_16" depart="28835.38">
        <route edges="9638455 108322 3648605"/>
    </vehicle>
    <vehicle id="cars28800_17" depart="28836.78">
        <route edges="108322 3648605"/>
    </vehicle>
    <vehicle id="cars28800_18" depart="28842.27">
        <route edges="107766 107598"/>
    </vehicle>
    <vehicle id="cars28800_19" depart="28846.28">
        <route edges="107766 107598"/>
    </vehicle>
    <vehicle id="cars28800_20" depart="28846.64">
        <route edges="6786837 3648605"/>
    </vehicle>
    <vehicle id="cars28800_21" depart="28849.29">
        <route edges="108322 3648605"/>
    </vehicle>
    <vehicle id="cars28800_22" depart="28854.97">
        <route edges="108429 108388"/>
    </vehicle>
    <vehicle id="cars28800_23" depart="28857.04">
        <route edges="108322 3648605"/>
    </vehicle>
    <vehicle id="cars28800_24" depart="28859.14">
        <route edges="6786837 108126"/>
    </vehicle>
    <vehicle id="cars28800_25" depart="28859.85">
        <route edges="107766 107598"/>
    </vehicle>
    <vehicle id="cars28800_26" depart="28860.37">
        <route edges="108322 108126"/>
    </vehicle>
    <vehicle id="cars28800_27" depart="28867.62">
        <route edges="6786837 3648605"/>
    </vehicle>
    <vehicle id="cars28800_28" depart="28872.21">
        <route edges="20146477 107597"/>
    </vehicle>
    <vehicle id="cars28800_29" depart="28873.58">
        <route edges="108429 108388"/>
    </vehicle>
    <vehicle id="cars28800_30" depart="28874.52">
        <route edges="6786837 108126"/>
    </vehicle>
    <vehicle id="cars28800_31" depart="28876.81">
        <route edges="6786837 108126"/>
    </vehicle>
    <vehicle id="cars28800_32" depart="28876.96">
        <route edges="108429 108388"/>
    </vehicle>
    <vehicle id="cars28800_33" depart="28878.23">
        <route edges="108322 3648605"/>
    </vehicle>
    <vehicle id="cars28800_34" depart="28879.83">
        <route edges="9638455 108322 3648605"/>
    </vehicle>
    <vehicle id="cars28800_35" depart="28882.42">
        <route edges="107766 107597"/>
    </vehicle>
    <vehicle id="cars28800_36" depart="28889.50">
        <route edges="7204482 7204470"/>
    </vehicle>
    <vehicle id="cars28800_37" depart="28891.60">
        <route edges="108322 3648605"/>
    </vehicle>
    <vehicle id="cars28800_38" depart="28893.70">
        <route edges="6786837 3648605"/>
    </vehicle>
    <vehicle id="cars28800_39" depart="28895.94">
        <route edges="107766 107598"/>
    </vehicle>
    <vehicle id="cars28800_40" depart="28896.45">
        <route edges="6786837 108126"/>
    </vehicle>
    <vehicle id="cars28800_41" depart="28899.57">
        <route edges="107766 107598"/>
    </vehicle>
    <vehicle id="cars28800_42" depart="28900.84">
        <route edges="6786837 3648605"/>
    </vehicle>
    <vehicle id="cars28800_43" depart="28901.91">
        <route edges="107766 107597"/>
    </vehicle>
    <vehicle id="cars28800_44" depart="28903.35">
        <route edges="107766 107597"/>
    </vehicle>
    <vehicle id="cars28800_45" depart="28905.21">
        <route edges="20146477 107598"/>
    </vehicle>
    <vehicle id="cars28800_46" depart="28905.98">
        <route edges="6786837 108126"/>
    </vehicle>
    <vehicle id="cars28800_47" depart="28907.79">
        <route edges="6786837 3648605"/>
    </vehicle>
    <vehicle id="cars28800_48" depart="28908.57">
        <route edges="107766 107598"/>
    </vehicle>
    <vehicle id="cars28800_49" depart="28911.87">
        <route edges="107766 107597"/>
    </vehicle>
    <vehicle id="cars28800_50" depart="28912.20">
        <route edges="107766 107598"/>
    </vehicle>
    <vehicle id="cars28800_51" depart="28914.74">
        <route edges="108322 3648605"/>
    </vehicle>
    <vehicle id="cars28800_52" depart="28914.82">
        <route edges="6786837 3648605"/>
    </vehicle>
    <vehicle id="cars28800_53" depart="28920.97">
        <route edges="107766 107598"/>
    </vehicle>
    <vehicle id="cars28800_54" depart="28923.14">
        <route edges="6786837 108126"/>
    </vehicle>
    <vehicle id="cars28800_55" depart="28923.20">
        <route edges="108537 7204446"/>
    </vehicle>
    <vehicle id="cars28800_56" depart="28925.34">
        <route edges="6786837 108126"/>
    </vehicle>
    <vehicle id="cars28800_57" depart="28925.42">
        <route edges="6786837 3648605"/>
    </vehicle>
    <vehicle id="cars28800_58" depart="28925.80">
        <route edges="20146477 107598"/>
    </vehicle>
    <vehicle id="cars28800_59" depart="28926.10">
        <route edges="108322 3648605"/>
    </vehicle>
    <vehicle id="cars28800_60" depart="28926.77">
        <route edges="6786837 3648605"/>
    </vehicle>
    <vehicle id="cars28800_61" depart="28933.80">
        <route edges="7204482 7204470"/>
    </vehicle>
    <vehicle id="cars28800_62" depart="28934.93">
        <route edges="108009 107831"/>
    </vehicle>
    <vehicle id="cars28800_63" depart="28936.51">
        <route edges="6786837 3648605"/>
    </vehicle>
    <vehicle id="cars28800_64" depart="28937.29">
        <route edges="107766 107598"/>
    </vehicle>
    <vehicle id="cars28800_65" depart="28937.57">
        <route edges="7204482 7204470"/>
    </vehicle>
    <vehicle id="cars28800_66" depart="28938.02">
        <route edges="108537 7204446"/>
    </vehicle>
    <vehicle id="cars28800_67" depart="28938.93">
        <route edges="9638455 108322 3648605"/>
    </vehicle>
    <vehicle id="cars28800_68" depart="28939.72">
        <route edges="108537 7204446"/>
    </vehicle>
    <vehicle id="cars28800_69" depart="28940.54">
        <route edges="108009 107831"/>
    </vehicle>
    <vehicle id="cars28800_70" depart="28944.61">
        <route edges="20146477 107597"/>
    </vehicle>
    <vehicle id="cars28800_71" depart="28947.29">
        <route edges="6786837 3648605"/>
    </vehicle>
    <vehicle id="cars28800_72" depart="28947.84">
        <route edges="107766 107598"/>
    </vehicle>
    <vehicle id="cars28800_73" depart="28949.66">
        <route edges="9638455 108322 3648605"/>
    </vehicle>
    <vehicle id="cars28800_74" depart="28952.04">
        <route edges="7204482 7204470"/>
    </vehicle>
    <vehicle id="cars28800_75" depart="28953.80">
        <route edges="107766 107598"/>
    </vehicle>
    <vehicle id="cars28800_76" depart="28954.51">
        <route edges="7204482 7204470"/>
    </vehicle>
    <vehicle id="cars28800_77" depart="28956.04">
        <route edges="108429 108388"/>
    </vehicle>
    <vehicle id="cars28800_78" depart="28957.83">
        <route edges="108429 108388"/>
    </vehicle>
    <vehicle id="cars28800_79" depart="28958.75">
        <route edges="6786837 3648605"/>
    </vehicle>
    <vehicle id="cars28800_80" depart="28959.31">
        <route edges="108322 3648605"/>
    </vehicle>
    <vehicle id="cars28800_81" depart="28960.23">
        <route edges="6786837 108126"/>
    </vehicle>
    <vehicle id="cars28800_82" depart="28960.69">
        <route edges="6786837 108126"/>
    </vehicle>
    <vehicle id="cars28800_83" depart="28963.11">
        <route edges="107766 107598"/>
    </vehicle>
    <vehicle id="cars28800_84" depart="28963.29">
        <route edges="108429 108388"/>
    </vehicle>
    <vehicle id="cars28800_85" depart="28963.44">
        <route edges="7204482 107831"/>
    </vehicle>
    <vehicle id="cars28800_86" depart="28963.74">
        <route edges="107766 107598"/>
    </vehicle>
    <vehicle id="cars28800_87" depart="28966.07">
        <route edges="7204482 7204470"/>
    </vehicle>
    <vehicle id="cars28800_88" depart="28966.62">
        <route edges="107766 107598"/>
    </vehicle>
    <vehicle id="cars28800_89" depart="28967.91">
        <route edges="107766 107597"/>
    </vehicle>
    <vehicle id="cars28800_90" depart="28968.34">
        <route edges="7204482 7204470"/>
    </vehicle>
    <vehicle id="cars28800_91" depart="28971.62">
        <route edges="6786837 108126"/>
    </vehicle>
    <vehicle id="cars28800_92" depart="28973.06">
        <route edges="9638455 108322 3648605"/>
    </vehicle>
    <vehicle id="cars28800_93" depart="28981.46">
        <route edges="108429 108388"/>
    </vehicle>
    <vehicle id="cars28800_94" depart="28984.49">
        <route edges="108537 7204446"/>
    </vehicle>
    <vehicle id="cars28800_95" depart="28984.63">
        <route edges="20146477 107597"/>
    </vehicle>
    <vehicle id="cars28800_96" depart="28985.70">
        <route edges="9638455 108322 3648605"/>
    </vehicle>
    <vehicle id="cars28800_97" depart="28985.78">
        <route edges="7204482 7204470"/>
    </vehicle>
    <vehicle id="cars28800_98" depart="28987.10">
        <route edges="108429 108388"/>
    </vehicle>
    <vehicle id="cars28800_99" depart="28988.41">
        <route edges="107766 107598"/>
    </vehicle>
    <vehicle id="cars28800_100" depart="28988.92">
        <route edges="6786837 108126"/>
    </vehicle>
    <vehicle id="cars28800_101" depart="28990.30">
        <route edges="6786837 108126"/>
    </vehicle>
    <vehicle id="cars28800_102" depart="28993.45">
        <route edges="107766 107598"/>
    </vehicle>
    <vehicle id="cars28800_103" depart="28999.77">
        <route edges="7204482 7204470"/>
    </vehicle>
    <vehicle id="cars28800_104" depart="29002.14">
        <route edges="7204482 7204470"/>
    </vehicle>
    <vehicle id="cars28800_105" depart="29006.33">
        <route edges="20146477 107597"/>
    </vehicle>
    <vehicle id="cars28800_106" depart="29007.97">
        <route edges="108009 107831"/>
    </vehicle>
    <vehicle id="cars28800_107" depart="29008.99">
        <route edges="107766 107598"/>
    </vehicle>
    <vehicle id="cars28800_108" depart="29013.50">
        <route edges="108537 7204446"/>
    </vehicle>
    <vehicle id="cars28800_109" depart="29014.36">
        <route edges="108537 7204446"/>
    </vehicle>
    <vehicle id="cars28800_110" depart="29018.17">
        <route edges="9638455 108322 108126"/>
    </vehicle>
    <vehicle id="cars28800_111" depart="29018.22">
        <route edges="107766 107598"/>
    </vehicle>
    <vehicle id="cars28800_112" depart="29018.85">
        <route edges="20146477 107598"/>
    </vehicle>
    <vehicle id="cars28800_113" depart="29020.81">
        <route edges="20146477 107597"/>
    </vehicle>
    <vehicle id="cars28800_114" depart="29021.36">
        <route edges="7204482 7204470"/>
    </vehicle>
    <vehicle id="cars28800_115" depart="29021.76">
        <route edges="107766 107598"/>
    </vehicle>
    <vehicle id="cars28800_116" depart="29023.64">
        <route edges="108429 108388"/>
    </vehicle>
    <vehicle id="cars28800_117" depart="29026.62">
        <route edges="108322 3648605"/>
    </vehicle>
    <vehicle id="cars28800_118" depart="29027.19">
        <route edges="107766 107598"/>
    </vehicle>
    <vehicle id="cars28800_119" depart="29029.18">
        <route edges="108009 7204470"/>
    </vehicle>
    <vehicle id="cars28800_120" depart="29032.10">
        <route edges="9638455 108322 3648605"/>
    </vehicle>
    <vehicle id="cars28800_121" depart="29032.11">
        <route edges="7204482 107831"/>
    </vehicle>
    <vehicle id="cars28800_122" depart="29033.48">
        <route edges="108429 108388"/>
    </vehicle>
    <vehicle id="cars28800_123" depart="29036.04">
        <route edges="108429 108388"/>
    </vehicle>
    <vehicle id="cars28800_124" depart="29041.26">
        <route edges="108429 108388"/>
    </vehicle>
    <vehicle id="cars28800_125" depart="29041.81">
        <route edges="7204482 7204470"/>
    </vehicle>
    <vehicle id="cars28800_126" depart="29042.32">
        <route edges="7204482 7204470"/>
    </vehicle>
    <vehicle id="cars28800_127" depart="29043.67">
        <route edges="6786837 108126"/>
    </vehicle>
    <vehicle id="cars28800_128" depart="29044.93">
        <route edges="108429 108388"/>
    </vehicle>
    <vehicle id="cars28800_129" depart="29045.08">
        <route edges="6786837 108126"/>
    </vehicle>
    <vehicle id="cars28800_130" depart="29046.65">
        <route edges="108537 7204446"/>
    </vehicle>
    <vehicle id="cars28800_131" depart="29049.19">
        <route edges="6786837 108126"/>
    </vehicle>
    <vehicle id="cars28800_132" depart="29050.73">
        <route edges="108009 107831"/>
    </vehicle>
    <vehicle id="cars28800_133" depart="29051.98">
        <route edges="108322 3648605"/>
    </vehicle>
    <vehicle id="cars28800_134" depart="29055.40">
        <route edges="6786837 108126"/>
    </vehicle>
    <vehicle id="cars28800_135" depart="29056.59">
        <route edges="6786837 108126"/>
    </vehicle>
    <vehicle id="cars28800_136" depart="29059.77">
        <route edges="108537 7204446"/>
    </vehicle>
    <vehicle id="cars28800_137" depart="29059.82">
        <route edges="108537 7204446"/>
    </vehicle>
    <vehicle id="cars28800_138" depart="29063.83">
        <route edges="107766 107598"/>
    </vehicle>
    <vehicle id="cars28800_139" depart="29065.02">
        <route edges="108322 3648605"/>
    </vehicle>
    <vehicle id="cars28800_140" depart="29067.41">
        <route edges="108429 7204446"/>
    </vehicle>
    <vehicle id="cars28800_141" depart="29071.24">
        <route edges="6786837 108126"/>
    </vehicle>
    <vehicle id="cars28800_142" depart="29080.55">
        <route edges="6786837 3648605"/>
    </vehicle>
    <vehicle id="cars28800_143" depart="29089.87">
        <route edges="6786837 108126"/>
    </vehicle>
    <vehicle id="cars28800_144" depart="29090.12">
        <route edges="108537 7204446"/>
    </vehicle>
    <vehicle id="cars28800_145" depart="29091.31">
        <route edges="20146477 107598"/>
    </vehicle>
    <vehicle id="cars28800_146" depart="29094.75">
        <route edges="7204482 7204470"/>
    </vehicle>
    <vehicle id="cars28800_147" depart="29100.15">
        <route edges="6786837 108126"/>
    </vehicle>
    <vehicle id="cars28800_148" depart="29100.82">
        <route edges="107766 107597"/>
    </vehicle>
    <vehicle id="cars28800_149" depart="29101.42">
        <route edges="6786837 108126"/>
    </vehicle>
    <vehicle id="cars28800_150" depart="29101.68">
        <route edges="108009 107831"/>
    </vehicle>
    <vehicle id="cars28800_151" depart="29102.94">
        <route edges="108009 107831"/>
    </vehicle>
    <vehicle id="cars28800_152" depart="29107.64">
        <route edges="9638455 108322 3648605"/>
    </vehicle>
    <vehicle id="cars28800_153" depart="29107.87">
        <route edges="107766 107598"/>
    </vehicle>
    <vehicle id="cars28800_154" depart="29111.13">
        <route edges="108322 3648605"/>
    </vehicle>
    <vehicle id="cars28800_155" depart="29111.71">
        <route edges="9638455 108322 3648605"/>
    </vehicle>
    <vehicle id="cars28800_156" depart="29112.26">
        <route edges="107766 107598"/>
    </vehicle>
    <vehicle id="cars28800_157" depart="29113.98">
        <route edges="9638455 108322 3648605"/>
    </vehicle>
    <vehicle id="cars28800_158" depart="29120.11">
        <route edges="108429 108388"/>
    </vehicle>
    <vehicle id="cars28800_159" depart="29120.49">
        <route edges="7204482 7204470"/>
    </vehicle>
    <vehicle id="cars28800_160" depart="29122.95">
        <route edges="108009 107831"/>
    </vehicle>
    <vehicle id="cars28800_161" depart="29124.88">
        <route edges="108009 7204470"/>
    </vehicle>
    <vehicle id="cars28800_162" depart="29126.15">
        <route edges="108322 3648605"/>
    </vehicle>
    <vehicle id="cars28800_163" depart="29126.77">
        <route edges="108322 3648605"/>
    </vehicle>
    <vehicle id="cars28800_164" depart="29127.84">
        <route edges="20146477 107597"/>
    </vehicle>
    <vehicle id="cars28800_165" depart="29132.02">
        <route edges="7204482 7204470"/>
    </vehicle>
    <vehicle id="cars28800_166" depart="29133.42">
        <route edges="20146477 107597"/>
    </vehicle>
    <vehicle id="cars28800_167" depart="29135.98">
        <route edges="20146477 107598"/>
    </vehicle>
    <vehicle id="cars28800_168" depart="29139.25">
        <route edges="6786837 108126"/>
    </vehicle>
    <vehicle id="cars28800_169" depart="29139.56">
        <route edges="108009 7204470"/>
    </vehicle>
    <vehicle id="cars28800_170" depart="29141.72">
        <route edges="6786837 108126"/>
    </vehicle>
    <vehicle id="cars28800_171" depart="29144.82">
        <route edges="108537 7204446"/>
    </vehicle>
    <vehicle id="cars28800_172" depart="29145.50">
        <route edges="108322 3648605"/>
    </vehicle>
    <vehicle id="cars28800_173" depart="29150.37">
        <route edges="20146477 107598"/>
    </vehicle>
    <vehicle id="cars28800_174" depart="29153.20">
        <route edges="108009 107831"/>
    </vehicle>
    <vehicle id="cars28800_175" depart="29157.47">
        <route edges="6786837 108126"/>
    </vehicle>
    <vehicle id="cars28800_176" depart="29157.56">
        <route edges="108537 7204446"/>
    </vehicle>
    <vehicle id="cars28800_177" depart="29158.07">
        <route edges="9638455 108322 3648605"/>
    </vehicle>
    <vehicle id="cars28800_178" depart="29158.35">
        <route edges="108429 108388"/>
    </vehicle>
    <vehicle id="cars28800_179" depart="29159.10">
        <route edges="108537 7204446"/>
    </vehicle>
    <vehicle id="cars28800_180" depart="29160.69">
        <route edges="6786837 108126"/>
    </vehicle>
    <vehicle id="cars28800_181" depart="29160.77">
        <route edges="108429 108388"/>
    </vehicle>
    <vehicle id="cars28800_182" depart="29167.86">
        <route edges="107766 107598"/>
    </vehicle>
    <vehicle id="cars28800_183" depart="29168.47">
        <route edges="108322 3648605"/>
    </vehicle>
    <vehicle id="cars28800_184" depart="29169.36">
        <route edges="6786837 108126"/>
    </vehicle>
    <vehicle id="cars28800_185" depart="29170.66">
        <route edges="20146477 107598"/>
    </vehicle>
    <vehicle id="cars28800_186" depart="29173.16">
        <route edges="7204482 107831"/>
    </vehicle>
    <vehicle id="cars28800_187" depart="29176.89">
        <route edges="108429 108388"/>
    </vehicle>
    <vehicle id="cars28800_188" depart="29177.03">
        <route edges="108322 108126"/>
    </vehicle>
    <vehicle id="cars28800_189" depart="29179.28">
        <route edges="7204482 7204470"/>
    </vehicle>
    <vehicle id="cars28800_190" depart="29181.72">
        <route edges="9638455 108322 3648605"/>
    </vehicle>
    <vehicle id="cars28800_191" depart="29182.69">
        <route edges="7204482 107831"/>
    </vehicle>
    <vehicle id="cars28800_192" depart="29182.89">
        <route edges="9638455 108322 3648605"/>
    </vehicle>
    <vehicle id="cars28800_193" depart="29188.49">
        <route edges="108322 3648605"/>
    </vehicle>
    <vehicle id="cars28800_194" depart="29191.34">
        <route edges="108537 7204446"/>
    </vehicle>
    <vehicle id="cars28800_195" depart="29192.51">
        <route edges="107766 107598"/>
    </vehicle>
    <vehicle id="cars28800_196" depart="29195.22">
        <route edges="9638455 108322 108126"/>
    </vehicle>
    <vehicle id="cars28800_197" depart="29196.69">
        <route edges="107766 107597"/>
    </vehicle>
    <vehicle id="cars28800_198" depart="29201.41">
        <route edges="108322 3648605"/>
    </vehicle>
    <vehicle id="cars28800_199" depart="29202.67">
        <route edges="107766 107598"/>
    </vehicle>
    <vehicle id="cars28800_200" depart="29205.76">
        <route edges="108429 108388"/>
    </vehicle>
    <vehicle id="cars28800_201" depart="29207.00">
        <route edges="6786837 108126"/>
    </vehicle>
    <vehicle id="cars28800_202" depart="29207.20">
        <route edges="107766 107598"/>
    </vehicle>
    <vehicle id="cars28800_203" depart="29207.96">
        <route edges="108322 3648605"/>
    </vehicle>
    <vehicle id="cars28800_204" depart="29214.70">
        <route edges="107766 107598"/>
    </vehicle>
    <vehicle id="cars28800_205" depart="29215.81">
        <route edges="108322 3648605"/>
    </vehicle>
    <vehicle id="cars28800_206" depart="29216.28">
        <route edges="108537 7204446"/>
    </vehicle>
    <vehicle id="cars28800_207" depart="29216.41">
        <route edges="107766 107598"/>
    </vehicle>
    <vehicle id="cars28800_208" depart="29224.42">
        <route edges="9638455 108322 3648605"/>
    </vehicle>
    <vehicle id="cars28800_209" depart="29224.86">
        <route edges="7204482 7204470"/>
    </vehicle>
    <vehicle id="cars28800_210" depart="29228.45">
        <route edges="108537 7204446"/>
    </vehicle>
    <vehicle id="cars28800_211" depart="29233.03">
        <route edges="6786837 3648605"/>
    </vehicle>
    <vehicle id="cars28800_212" depart="29236.07">
        <route edges="6786837 108126"/>
    </vehicle>
    <vehicle id="cars28800_213" depart="29238.69">
        <route edges="9638455 108322 3648605"/>
    </vehicle>
    <vehicle id="cars28800_214" depart="29245.94">
        <route edges="107766 107597"/>
    </vehicle>
    <vehicle id="cars28800_215" depart="29246.73">
        <route edges="7204482 107831"/>
    </vehicle>
    <vehicle id="cars28800_216" depart="29248.53">
        <route edges="107766 107598"/>
    </vehicle>
    <vehicle id="cars28800_217" depart="29248.60">
        <route edges="9638455 108322 108126"/>
    </vehicle>
    <vehicle id="cars28800_218" depart="29251.98">
        <route edges="108429 7204446"/>
    </vehicle>
    <vehicle id="cars28800_219" depart="29252.45">
        <route edges="6786837 108126"/>
    </vehicle>
    <vehicle id="cars28800_220" depart="29253.08">
        <route edges="6786837 3648605"/>
    </vehicle>
    <vehicle id="cars28800_221" depart="29255.30">
        <route edges="9638455 108322 3648605"/>
    </vehicle>
    <vehicle id="cars28800_222" depart="29256.85">
        <route edges="107766 107598"/>
    </vehicle>
    <vehicle id="cars28800_223" depart="29260.51">
        <route edges="9638455 108322 3648605"/>
    </vehicle>
    <vehicle id="cars28800_224" depart="29266.95">
        <route edges="7204482 7204470"/>
    </vehicle>
    <vehicle id="cars28800_225" depart="29267.03">
        <route edges="7204482 107831"/>
    </vehicle>
    <vehicle id="cars28800_226" depart="29270.76">
        <route edges="108009 7204470"/>
    </vehicle>
    <vehicle id="cars28800_227" depart="29271.95">
        <route edges="20146477 107598"/>
    </vehicle>
    <vehicle id="cars28800_228" depart="29272.06">
        <route edges="108537 7204446"/>
    </vehicle>
    <vehicle id="cars28800_229" depart="29273.12">
        <route edges="6786837 3648605"/>
    </vehicle>
    <vehicle id="cars28800_230" depart="29278.90">
        <route edges="6786837 108126"/>
    </vehicle>
    <vehicle id="cars28800_231" depart="29279.33">
        <route edges="20146477 107597"/>
    </vehicle>
    <vehicle id="cars28800_232" depart="29279.36">
        <route edges="108429 108388"/>
    </vehicle>
    <vehicle id="cars28800_233" depart="29280.11">
        <route edges="107766 107598"/>
    </vehicle>
    <vehicle id="cars28800_234" depart="29283.40">
        <route edges="9638455 108322 3648605"/>
    </vehicle>
    <vehicle id="cars28800_235" depart="29283.66">
        <route edges="7204482 7204470"/>
    </vehicle>
    <vehicle id="cars28800_236" depart="29287.47">
        <route edges="108009 7204470"/>
    </vehicle>
    <vehicle id="cars28800_237" depart="29287.71">
        <route edges="9638455 108322 3648605"/>
    </vehicle>
    <vehicle id="cars28800_238" depart="29288.45">
        <route edges="9638455 108322 108126"/>
    </vehicle>
    <vehicle id="cars28800_239" depart="29289.20">
        <route edges="108009 107831"/>
    </vehicle>
    <vehicle id="cars28800_240" depart="29296.84">
        <route edges="108429 108388"/>
    </vehicle>
    <vehicle id="cars28800_241" depart="29298.76">
        <route edges="108322 3648605"/>
    </vehicle>
    <vehicle id="cars28800_242" depart="29301.09">
        <route edges="20146477 107597"/>
    </vehicle>
    <vehicle id="cars28800_243" depart="29303.68">
        <route edges="108537 7204446"/>
    </vehicle>
    <vehicle id="cars28800_244" depart="29308.36">
        <route edges="7204482 7204470"/>
    </vehicle>
    <vehicle id="cars28800_245" depart="29308.62">
        <route edges="20146477 107597"/>
    </vehicle>
    <vehicle id="cars28800_246" depart="29309.76">
        <route edges="7204482 107831"/>
    </vehicle>
    <vehicle id="cars28800_247" depart="29312.90">
        <route edges="108322 3648605"/>
    </vehicle>
    <vehicle id="cars28800_248" depart="29313.70">
        <route edges="107766 107598"/>
    </vehicle>
    <vehicle id="cars28800_249" depart="29314.45">
        <route edges="108009 107831"/>
    </vehicle>
    <vehicle id="cars28800_250" depart="29317.03">
        <route edges="107766 107598"/>
    </vehicle>
    <vehicle id="cars28800_251" depart="29318.66">
        <route edges="108537 7204446"/>
    </vehicle>
    <vehicle id="cars28800_252" depart="29318.86">
        <route edges="107766 107598"/>
    </vehicle>
    <vehicle id="cars28800_253" depart="29322.53">
        <route edges="9638455 108322 3648605"/>
    </vehicle>
    <vehicle id="cars28800_254" depart="29323.11">
        <route edges="108429 108388"/>
    </vehicle>
    <vehicle id="cars28800_255" depart="29324.74">
        <route edges="6786837 3648605"/>
    </vehicle>
    <vehicle id="cars28800_256" depart="29325.05">
        <route edges="107766 107598"/>
    </vehicle>
    <vehicle id="cars28800_257" depart="29327.61">
        <route edges="107766 107598"/>
    </vehicle>
    <vehicle id="cars28800_258" depart="29328.16">
        <route edges="20146477 107597"/>
    </vehicle>
    <vehicle id="cars28800_259" depart="29331.21">
        <route edges="6786837 3648605"/>
    </vehicle>
    <vehicle id="cars28800_260" depart="29331.27">
        <route edges="107766 107597"/>
    </vehicle>
    <vehicle id="cars28800_261" depart="29332.15">
        <route edges="108429 108388"/>
    </vehicle>
    <vehicle id="cars28800_262" depart="29334.23">
        <route edges="9638455 108322 3648605"/>
    </vehicle>
    <vehicle id="cars28800_263" depart="29335.57">
        <route edges="108009 107831"/>
    </vehicle>
    <vehicle id="cars28800_264" depart="29335.85">
        <route edges="108429 108388"/>
    </vehicle>
    <vehicle id="cars28800_265" depart="29336.07">
        <route edges="108537 7204446"/>
    </vehicle>
    <vehicle id="cars28800_266" depart="29337.16">
        <route edges="108322 108126"/>
    </vehicle>
    <vehicle id="cars28800_267" depart="29337.67">
        <route edges="108429 7204446"/>
    </vehicle>
    <vehicle id="cars28800_268" depart="29340.47">
        <route edges="6786837 108126"/>
    </vehicle>
    <vehicle id="cars28800_269" depart="29342.84">
        <route edges="107766 107598"/>
    </vehicle>
    <vehicle id="cars28800_270" depart="29345.20">
        <route edges="6786837 108126"/>
    </vehicle>
    <vehicle id="cars28800_271" depart="29346.04">
        <route edges="20146477 107598"/>
    </vehicle>
    <vehicle id="cars28800_272" depart="29349.56">
        <route edges="9638455 108322 3648605"/>
    </vehicle>
    <vehicle id="cars28800_273" depart="29350.31">
        <route edges="6786837 108126"/>
    </vehicle>
    <vehicle id="cars28800_274" depart="29356.43">
        <route edges="6786837 108126"/>
    </vehicle>
    <vehicle id="cars28800_275" depart="29358.07">