<?xml version="1.0" encoding="UTF-8"?>

<!-- generated on 2024-10-24 12:56:47 by Eclipse SUMO netconvert Version 1.20.0
<configuration xmlns:xsi="http://www.w3.org/2001/XMLSchema-instance" xsi:noNamespaceSchemaLocation="http://sumo.dlr.de/xsd/netconvertConfiguration.xsd">

    <input>
        <type-files value="data/sumo_networks/selected_junctions/selected_junctions_edge_types.typ.xml"/>
        <shapefile-prefix value="data/sumo_networks/selected_junctions/arcview/selected_junctions"/>
    </input>

    <output>
        <output-file value="data/sumo_networks/selected_junctions/selected_junctions_junction_based.net.xml"/>
    </output>

    <projection>
        <proj.utm value="true"/>
    </projection>

    <processing>
        <geometry.min-radius.fix value="true"/>
    </processing>

    <tls_building>
        <tls.set value="13446743,13447496,13447139,13447880,13446436,13446676,13446387,20146478,13447415"/>
        <tls.rebuild value="true"/>
    </tls_building>

    <edge_removal>
        <remove-edges.isolated value="true"/>
    </edge_removal>

    <junctions>
        <no-internal-links value="true"/>
        <no-turnarounds value="true"/>
    </junctions>

    <formats>
        <shapefile.street-id value="LINK_ID"/>
        <shapefile.from-id value="REF_IN_ID"/>
        <shapefile.to-id value="NREF_IN_ID"/>
        <shapefile.type-id value="FUNC_CLASS"/>
        <shapefile.laneNumber value="nolanes"/>
        <shapefile.speed value="speed"/>
        <shapefile.name value="ST_NAME"/>
    </formats>

</configuration>
-->

<net version="1.20" junctionCornerDetail="5" limitTurnSpeed="5.50" xmlns:xsi="http://www.w3.org/2001/XMLSchema-instance" xsi:noNamespaceSchemaLocation="http://sumo.dlr.de/xsd/net_file.xsd">

    <location netOffset="-638704.37,-4847266.82" convBoundary="0.00,0.00,1937.64,1328.25" origBoundary="-79.276578,43.765202,-79.252397,43.777228" projParameter="+proj=utm +zone=17 +ellps=WGS84 +datum=WGS84 +units=m +no_defs"/>

    <type id="201200" priority="4" numLanes="3" speed="12.50" allow="emergency passenger taxi bus coach delivery truck trailer evehicle" oneway="1"/>
    <type id="201300" priority="3" numLanes="2" speed="12.50" allow="emergency passenger taxi bus coach delivery truck trailer evehicle" oneway="1"/>
    <type id="201600" priority="4" numLanes="1" speed="12.50" allow="emergency passenger taxi bus coach delivery truck trailer evehicle" oneway="1"/>

    <edge id="107563" from="13446387" to="13446271" name="McCowan Road" priority="4" type="201200">
        <lane id="107563_0" index="0" allow="emergency passenger taxi bus coach delivery truck trailer evehicle" speed="12.50" length="100.27" shape="1927.66,1154.91 1899.72,1247.04"/>
        <lane id="107563_1" index="1" allow="emergency passenger taxi bus coach delivery truck trailer evehicle" speed="12.50" length="100.27" shape="1924.60,1153.98 1896.66,1246.11"/>
        <lane id="107563_2" index="2" allow="emergency passenger taxi bus coach delivery truck trailer evehicle" speed="12.50" length="100.27" shape="1921.54,1153.05 1893.60,1245.18"/>
    </edge>
    <edge id="107587" from="13446428" to="13446387" name="Triton Road" priority="4" type="201600">
        <lane id="107587_0" index="0" allow="emergency passenger taxi bus coach delivery truck trailer evehicle" speed="12.50" length="108.21" shape="1817.09,1119.08 1917.72,1146.18"/>
    </edge>
    <edge id="107597" from="13446436" to="13446363" name="Progress Avenue" priority="3" type="201300" shape="1068.78,1113.41 1110.86,1127.81 1123.50,1132.95 1135.83,1139.45 1146.89,1147.02 1157.14,1154.20 1164.81,1161.08 1171.20,1168.62">
        <lane id="107597_0" index="0" allow="emergency passenger taxi bus coach delivery truck trailer evehicle" speed="12.50" length="118.16" shape="1083.09,1113.23 1112.54,1123.31 1125.53,1128.59 1138.32,1135.34 1149.62,1143.08 1160.13,1150.43 1168.26,1157.72 1174.86,1165.51"/>
        <lane id="107597_1" index="1" allow="emergency passenger taxi bus coach delivery truck trailer evehicle" speed="12.50" length="118.16" shape="1082.06,1116.26 1111.42,1126.31 1124.18,1131.49 1136.66,1138.08 1147.80,1145.71 1158.13,1152.94 1165.96,1159.96 1172.42,1167.58"/>
    </edge>
    <edge id="107598" from="13446436" to="13446178" name="Brimley Road" priority="4" type="201200" shape="1068.78,1113.41 1022.64,1264.20 1004.46,1325.03 1003.50,1328.25">
        <lane id="107598_0" index="0" allow="emergency passenger taxi bus coach delivery truck trailer evehicle" speed="12.50" length="224.55" shape="1075.20,1119.76 1030.30,1266.52 1012.13,1327.32 1011.16,1330.55"/>
        <lane id="107598_1" index="1" allow="emergency passenger taxi bus coach delivery truck trailer evehicle" speed="12.50" length="224.55" shape="1072.14,1118.82 1027.24,1265.59 1009.06,1326.41 1008.10,1329.63"/>
        <lane id="107598_2" index="2" allow="emergency passenger taxi bus coach delivery truck trailer evehicle" speed="12.50" length="224.55" shape="1069.08,1117.89 1024.17,1264.66 1005.99,1325.49 1005.03,1328.71"/>
    </edge>
    <edge id="107613" from="13446459" to="13446387" name="McCowan Road" priority="4" type="201200">
        <lane id="107613_0" index="0" allow="emergency passenger taxi bus coach delivery truck trailer evehicle" speed="12.50" length="56.13" shape="1945.29,1097.46 1930.93,1144.23"/>
        <lane id="107613_1" index="1" allow="emergency passenger taxi bus coach delivery truck trailer evehicle" speed="12.50" length="56.13" shape="1942.23,1096.52 1927.87,1143.29"/>
        <lane id="107613_2" index="2" allow="emergency passenger taxi bus coach delivery truck trailer evehicle" speed="12.50" length="56.13" shape="1939.17,1095.58 1924.81,1142.35"/>
    </edge>
    <edge id="107766" from="13446676" to="13446436" name="Brimley Road" priority="4" type="201200">
        <lane id="107766_0" index="0" allow="emergency passenger taxi bus coach delivery truck trailer evehicle" speed="12.50" length="220.40" shape="1141.51,905.19 1079.46,1105.95"/>
        <lane id="107766_1" index="1" allow="emergency passenger taxi bus coach delivery truck trailer evehicle" speed="12.50" length="220.40" shape="1138.45,904.25 1076.40,1105.00"/>
        <lane id="107766_2" index="2" allow="emergency passenger taxi bus coach delivery truck trailer evehicle" speed="12.50" length="220.40" shape="1135.39,903.30 1073.34,1104.06"/>
    </edge>
    <edge id="107831" from="13446743" to="13446658" name="Progress Avenue" priority="3" type="201300">
        <lane id="107831_0" index="0" allow="emergency passenger taxi bus coach delivery truck trailer evehicle" speed="12.50" length="248.29" shape="299.42,839.14 523.53,909.63"/>
        <lane id="107831_1" index="1" allow="emergency passenger taxi bus coach delivery truck trailer evehicle" speed="12.50" length="248.29" shape="298.46,842.19 522.57,912.68"/>
    </edge>
    <edge id="108009" from="13446991" to="13446743" name="Progress Avenue" priority="3" type="201300" shape="0.00,651.35 5.00,657.12 8.18,660.98 11.37,664.83 14.61,668.64 17.86,672.43 21.14,676.21 24.44,679.97 27.77,683.70 31.13,687.39 34.52,691.07 37.93,694.73 41.34,698.38 44.76,702.03 48.17,705.69 51.57,709.36 54.95,713.04 58.34,716.72 61.70,720.42 65.00,724.17 68.18,728.03 71.30,731.94 74.45,735.82 77.74,739.59 81.10,743.30 84.57,746.90 88.18,750.36 91.94,753.64 95.80,756.82 99.70,759.96 103.58,763.12 107.50,766.23 111.53,769.19 115.71,771.91 120.01,774.48 124.33,777.00 128.61,779.58 132.88,782.19 137.17,784.76 141.52,787.22 145.97,789.50 150.49,791.64 155.02,793.76 159.51,795.95 163.99,798.18 168.49,800.36 173.05,802.42 177.66,804.35 182.28,806.24 186.93,808.11 191.59,809.93 196.27,811.70 200.96,813.41 205.68,815.05 210.43,816.62 215.20,818.12 219.98,819.57 224.78,820.98 229.58,822.37 234.39,823.75 239.20,825.14 243.99,826.55 248.80,827.92 253.62,829.27 258.43,830.62 263.23,832.02 268.01,833.48 272.75,835.08 277.44,836.80 285.24,839.71">
        <lane id="108009_0" index="0" allow="emergency passenger taxi bus coach delivery truck trailer evehicle" speed="12.50" length="350.98" shape="3.63,648.21 8.67,654.02 11.88,657.92 15.05,661.74 18.26,665.52 21.50,669.30 24.75,673.06 28.03,676.79 31.33,680.48 34.67,684.15 38.05,687.80 41.44,691.45 44.85,695.10 48.27,698.76 51.68,702.42 55.09,706.10 58.48,709.78 61.88,713.48 65.28,717.23 68.65,721.06 71.91,725.00 75.04,728.93 78.13,732.73 81.32,736.40 84.61,740.02 87.96,743.50 91.41,746.81 95.04,749.98 98.84,753.10 102.72,756.23 106.59,759.37 110.42,762.41 114.26,765.24 118.25,767.84 122.45,770.34 126.78,772.87 131.11,775.48 135.37,778.09 139.59,780.62 143.79,783.00 148.09,785.19 152.53,787.30 157.09,789.43 161.63,791.65 166.11,793.87 170.53,796.02 174.96,798.02 179.49,799.91 184.09,801.80 188.69,803.64 193.31,805.45 197.94,807.20 202.57,808.88 207.23,810.50 211.90,812.05 216.61,813.53 221.35,814.97 226.12,816.37 230.91,817.75 235.72,819.14 240.54,820.53 245.33,821.94 250.11,823.30 254.91,824.65 259.75,826.01 264.60,827.42 269.48,828.91 274.34,830.55 279.11,832.30 282.70,833.64"/>
        <lane id="108009_1" index="1" allow="emergency passenger taxi bus coach delivery truck trailer evehicle" speed="12.50" length="350.98" shape="1.21,650.31 6.22,656.09 9.41,659.96 12.60,663.80 15.82,667.60 19.07,671.39 22.34,675.16 25.63,678.91 28.95,682.63 32.31,686.31 35.70,689.98 39.10,693.64 42.51,697.29 45.93,700.94 49.34,704.60 52.74,708.27 56.13,711.95 59.52,715.64 62.89,719.36 66.21,723.14 69.43,727.02 72.54,730.94 75.68,734.79 78.93,738.52 82.27,742.20 85.70,745.77 89.25,749.17 92.97,752.42 96.81,755.58 100.71,758.72 104.58,761.87 108.47,764.96 112.44,767.87 116.56,770.56 120.82,773.10 125.15,775.62 129.45,778.21 133.71,780.82 137.98,783.38 142.28,785.82 146.67,788.06 151.17,790.19 155.71,792.32 160.22,794.52 164.70,796.75 169.17,798.92 173.68,800.95 178.27,802.87 182.88,804.76 187.52,806.62 192.16,808.43 196.82,810.20 201.50,811.90 206.20,813.53 210.92,815.09 215.67,816.59 220.44,818.03 225.23,819.44 230.03,820.83 234.83,822.21 239.64,823.60 244.44,825.01 249.24,826.38 254.05,827.73 258.87,829.09 263.69,830.48 268.50,831.96 273.28,833.57 278.00,835.30 281.58,836.64"/>
    </edge>
    <edge id="108126" from="13447139" to="13447135" name="Ellesmere Road" priority="4" type="201200">
        <lane id="108126_0" index="0" allow="emergency passenger taxi bus coach delivery truck trailer evehicle" speed="12.50" length="13.53" shape="1243.87,533.10 1244.06,533.15"/>
        <lane id="108126_1" index="1" allow="emergency passenger taxi bus coach delivery truck trailer evehicle" speed="12.50" length="13.53" shape="1243.03,536.19 1243.22,536.24"/>
        <lane id="108126_2" index="2" allow="emergency passenger taxi bus coach delivery truck trailer evehicle" speed="12.50" length="13.53" shape="1242.19,539.28 1242.38,539.33"/>
    </edge>
    <edge id="108322" from="13447415" to="13447139" name="Brimley Road" priority="4" type="201200" shape="1278.24,345.07 1245.97,460.58 1232.12,538.20">
        <lane id="108322_0" index="0" allow="emergency passenger taxi bus coach delivery truck trailer evehicle" speed="12.50" length="198.78" shape="1285.89,347.42 1253.78,462.36 1242.34,526.47"/>
        <lane id="108322_1" index="1" allow="emergency passenger taxi bus coach delivery truck trailer evehicle" speed="12.50" length="198.78" shape="1282.81,346.56 1250.66,461.65 1239.19,525.90"/>
        <lane id="108322_2" index="2" allow="emergency passenger taxi bus coach delivery truck trailer evehicle" speed="12.50" length="198.78" shape="1279.73,345.69 1247.54,460.93 1236.04,525.34"/>
    </edge>
    <edge id="108388" from="13447496" to="13447419" name="Ellesmere Road" priority="4" type="201200">
        <lane id="108388_0" index="0" allow="emergency passenger taxi bus coach delivery truck trailer evehicle" speed="12.50" length="193.88" shape="462.77,279.35 634.93,334.71"/>
        <lane id="108388_1" index="1" allow="emergency passenger taxi bus coach delivery truck trailer evehicle" speed="12.50" length="193.88" shape="461.79,282.40 633.95,337.76"/>
        <lane id="108388_2" index="2" allow="emergency passenger taxi bus coach delivery truck trailer evehicle" speed="12.50" length="193.88" shape="460.81,285.45 632.97,340.81"/>
    </edge>
    <edge id="108429" from="13447551" to="13447496" name="Ellesmere Road" priority="4" type="201200" shape="311.24,239.03 312.80,239.52 447.91,282.98">
        <lane id="108429_0" index="0" allow="emergency passenger taxi bus coach delivery truck trailer evehicle" speed="12.50" length="143.56" shape="313.66,231.40 315.23,231.90 445.65,273.85"/>
        <lane id="108429_1" index="1" allow="emergency passenger taxi bus coach delivery truck trailer evehicle" speed="12.50" length="143.56" shape="312.69,234.45 314.26,234.95 444.67,276.90"/>
        <lane id="108429_2" index="2" allow="emergency passenger taxi bus coach delivery truck trailer evehicle" speed="12.50" length="143.56" shape="311.73,237.51 313.29,238.00 443.69,279.94"/>
    </edge>
    <edge id="108537" from="13447705" to="13447496" name="Midland Avenue" priority="4" type="201200" shape="476.39,128.48 471.56,143.39 468.76,156.34 465.41,172.28 462.43,188.23 456.68,223.13 451.30,261.04 447.91,282.98">
        <lane id="108537_0" index="0" allow="emergency passenger taxi bus coach delivery truck trailer evehicle" speed="12.50" length="157.30" shape="484.00,130.94 479.29,145.48 476.59,158.01 473.26,173.84 470.31,189.62 464.59,224.34 459.22,262.21 457.82,271.22"/>
        <lane id="108537_1" index="1" allow="emergency passenger taxi bus coach delivery truck trailer evehicle" speed="12.50" length="157.30" shape="480.96,129.96 476.20,144.64 473.46,157.34 470.12,173.22 467.16,189.06 461.42,223.86 456.05,261.74 454.66,270.73"/>
        <lane id="108537_2" index="2" allow="emergency passenger taxi bus coach delivery truck trailer evehicle" speed="12.50" length="157.30" shape="477.91,128.97 473.11,143.81 470.33,156.68 466.98,172.60 464.01,188.51 458.26,223.37 452.89,261.27 451.50,270.24"/>
    </edge>
    <edge id="20146477" from="20146478" to="13446436" name="Progress Avenue" priority="3" type="201300" shape="842.91,1040.36 855.65,1045.96 875.37,1053.40 914.20,1066.03 994.19,1091.10 1068.78,1113.41">
        <lane id="20146477_0" index="0" allow="emergency passenger taxi bus coach delivery truck trailer evehicle" speed="12.50" length="237.51" shape="844.84,1035.96 857.47,1041.52 876.96,1048.87 915.66,1061.46 995.59,1086.51 1066.43,1107.70"/>
        <lane id="20146477_1" index="1" allow="emergency passenger taxi bus coach delivery truck trailer evehicle" speed="12.50" length="237.51" shape="843.55,1038.89 856.26,1044.48 875.90,1051.89 914.69,1064.51 994.66,1089.57 1065.52,1110.76"/>
    </edge>
    <edge id="3648605" from="13447139" to="13447073" name="Brimley Road" priority="4" type="201200">
        <lane id="3648605_0" index="0" allow="emergency passenger taxi bus coach delivery truck trailer evehicle" speed="12.50" length="52.21" shape="1239.34,544.13 1232.52,591.02"/>
        <lane id="3648605_1" index="1" allow="emergency passenger taxi bus coach delivery truck trailer evehicle" speed="12.50" length="52.21" shape="1236.17,543.67 1229.35,590.56"/>
        <lane id="3648605_2" index="2" allow="emergency passenger taxi bus coach delivery truck trailer evehicle" speed="12.50" length="52.21" shape="1233.01,543.21 1226.19,590.10"/>
    </edge>
    <edge id="6786837" from="13447233" to="13447139" name="Ellesmere Road" priority="4" type="201200">
        <lane id="6786837_0" index="0" allow="emergency passenger taxi bus coach delivery truck trailer evehicle" speed="12.50" length="221.37" shape="1023.83,462.79 1229.84,529.07"/>
        <lane id="6786837_1" index="1" allow="emergency passenger taxi bus coach delivery truck trailer evehicle" speed="12.50" length="221.37" shape="1022.85,465.84 1228.86,532.11"/>
        <lane id="6786837_2" index="2" allow="emergency passenger taxi bus coach delivery truck trailer evehicle" speed="12.50" length="221.37" shape="1021.87,468.88 1227.88,535.16"/>
    </edge>
    <edge id="7204446" from="13447496" to="13447104" name="Midland Avenue" priority="4" type="201200" shape="447.91,282.98 442.10,306.40 439.36,325.68 435.34,346.44 431.47,365.50 427.16,380.02 423.77,394.56 417.45,416.72 400.43,474.48 379.54,541.16 372.78,561.66">
        <lane id="7204446_0" index="0" allow="emergency passenger taxi bus coach delivery truck trailer evehicle" speed="12.50" length="288.99" shape="454.69,288.85 449.97,307.93 447.25,327.01 443.19,347.99 439.24,367.44 434.89,382.07 431.52,396.57 425.13,418.95 408.09,476.81 387.15,543.61 380.37,564.16"/>
        <lane id="7204446_1" index="1" allow="emergency passenger taxi bus coach delivery truck trailer evehicle" speed="12.50" length="288.99" shape="451.59,288.08 446.82,307.32 444.09,326.48 440.05,347.37 436.13,366.66 431.80,381.25 428.42,395.77 422.06,418.06 405.02,475.88 384.10,542.63 377.33,563.16"/>
        <lane id="7204446_2" index="2" allow="emergency passenger taxi bus coach delivery truck trailer evehicle" speed="12.50" length="288.99" shape="448.48,287.31 443.68,306.70 440.93,325.95 436.91,346.75 433.02,365.89 428.70,380.43 425.32,394.97 418.98,417.17 401.96,474.95 381.06,541.65 374.30,562.16"/>
    </edge>
    <edge id="7204470" from="13446743" to="13446233" name="Midland Avenue" priority="4" type="201200" shape="285.24,839.71 257.98,918.13 225.44,1020.90 197.02,1112.70 173.80,1185.05 153.44,1247.09 141.91,1278.81">
        <lane id="7204470_0" index="0" allow="emergency passenger taxi bus coach delivery truck trailer evehicle" speed="12.50" length="461.95" shape="291.57,845.88 265.57,920.65 233.07,1023.29 204.65,1115.10 181.41,1187.52 161.00,1249.70 149.43,1281.54"/>
        <lane id="7204470_1" index="1" allow="emergency passenger taxi bus coach delivery truck trailer evehicle" speed="12.50" length="461.95" shape="288.55,844.83 262.54,919.64 230.02,1022.33 201.60,1114.14 178.37,1186.53 157.98,1248.66 146.42,1280.45"/>
        <lane id="7204470_2" index="2" allow="emergency passenger taxi bus coach delivery truck trailer evehicle" speed="12.50" length="461.95" shape="285.53,843.78 259.50,918.63 226.96,1021.38 198.55,1113.18 175.32,1185.54 154.95,1247.61 143.41,1279.36"/>
    </edge>
    <edge id="7204482" from="13446984" to="13446743" name="Midland Avenue" priority="4" type="201200" shape="342.53,656.80 316.76,738.09 291.17,815.43 285.24,839.71">
        <lane id="7204482_0" index="0" allow="emergency passenger taxi bus coach delivery truck trailer evehicle" speed="12.50" length="191.74" shape="350.15,659.22 324.37,740.55 298.87,817.63 295.43,831.71"/>
        <lane id="7204482_1" index="1" allow="emergency passenger taxi bus coach delivery truck trailer evehicle" speed="12.50" length="191.74" shape="347.10,658.25 321.33,739.56 295.79,816.75 292.32,830.95"/>
        <lane id="7204482_2" index="2" allow="emergency passenger taxi bus coach delivery truck trailer evehicle" speed="12.50" length="191.74" shape="344.05,657.28 318.28,738.58 292.71,815.87 289.22,830.19"/>
    </edge>
    <edge id="9638455" from="13447880" to="13447415" name="Brimley Road" priority="4" type="201200" shape="1385.12,0.00 1336.68,155.14 1278.24,345.07">
        <lane id="9638455_0" index="0" allow="emergency passenger taxi bus coach delivery truck trailer evehicle" speed="12.50" length="361.24" shape="1392.76,2.38 1344.32,157.51 1285.95,347.23"/>
        <lane id="9638455_1" index="1" allow="emergency passenger taxi bus coach delivery truck trailer evehicle" speed="12.50" length="361.24" shape="1389.70,1.43 1341.26,156.56 1282.89,346.29"/>
        <lane id="9638455_2" index="2" allow="emergency passenger taxi bus coach delivery truck trailer evehicle" speed="12.50" length="361.24" shape="1386.65,0.48 1338.21,155.61 1279.83,345.35"/>
    </edge>

    <tlLogic id="13446387" type="static" programID="0" offset="0">
        <phase duration="42" state="GGGrr"/>
        <phase duration="3"  state="yyyrr"/>
        <phase duration="42" state="rrrGG"/>
        <phase duration="3"  state="rrryy"/>
    </tlLogic>
    <tlLogic id="13446436" type="static" programID="0" offset="0">
        <phase duration="42" state="GGGGrrrr"/>
        <phase duration="3"  state="yyyyrrrr"/>
        <phase duration="42" state="rrrrGGGG"/>
        <phase duration="3"  state="rrrryyyy"/>
    </tlLogic>
    <tlLogic id="13446743" type="static" programID="0" offset="0">
        <phase duration="42" state="GGGGrrrr"/>
        <phase duration="3"  state="yyyyrrrr"/>
        <phase duration="42" state="rrrrGGGG"/>
        <phase duration="3"  state="rrrryyyy"/>
    </tlLogic>
    <tlLogic id="13447139" type="static" programID="0" offset="0">
        <phase duration="42" state="GGGGrrrrr"/>
        <phase duration="3"  state="yyyyrrrrr"/>
        <phase duration="42" state="rrrrGGGGG"/>
        <phase duration="3"  state="rrrryyyyy"/>
    </tlLogic>
    <tlLogic id="13447415" type="static" programID="0" offset="0">
        <phase duration="82" state="GGG"/>
        <phase duration="3"  state="yyy"/>
        <phase duration="5"  state="rrr"/>
    </tlLogic>
    <tlLogic id="13447496" type="static" programID="0" offset="0">
        <phase duration="42" state="GGGGrrrrr"/>
        <phase duration="3"  state="yyyyrrrrr"/>
        <phase duration="42" state="rrrrGGGGG"/>
        <phase duration="3"  state="rrrryyyyy"/>
    </tlLogic>

    <junction id="13446178" type="dead_end" x="1003.50" y="1328.25" incLanes="107598_0 107598_1 107598_2" intLanes="" shape="1012.70,1331.00 1003.50,1328.25"/>
    <junction id="13446233" type="dead_end" x="141.91" y="1278.81" incLanes="7204470_0 7204470_1 7204470_2" intLanes="" shape="150.93,1282.09 141.91,1278.81"/>
    <junction id="13446271" type="dead_end" x="1892.07" y="1244.72" incLanes="107563_0 107563_1 107563_2" intLanes="" shape="1901.26,1247.50 1892.07,1244.72"/>
    <junction id="13446363" type="dead_end" x="1171.20" y="1168.62" incLanes="107597_0 107597_1" intLanes="" shape="1176.08,1164.48 1171.20,1168.62"/>
    <junction id="13446387" type="traffic_light" x="1921.16" y="1148.76" incLanes="107613_0 107613_1 107613_2 107587_0" intLanes="" shape="1932.46,1144.70 1923.28,1141.88 1922.19,1143.88 1921.41,1144.48 1920.47,1144.80 1919.38,1144.85 1918.13,1144.63 1917.30,1147.72 1919.32,1148.73 1919.91,1149.46 1920.22,1150.35 1920.25,1151.39 1920.00,1152.59 1929.19,1155.38">
        <request index="0" response="00000" foes="11000"/>
        <request index="1" response="00000" foes="11000"/>
        <request index="2" response="00000" foes="11000"/>
        <request index="3" response="00111" foes="00111"/>
        <request index="4" response="00111" foes="00111"/>
    </junction>
    <junction id="13446428" type="dead_end" x="1816.67" y="1120.63" incLanes="" intLanes="" shape="1816.67,1120.63 1817.51,1117.54"/>
    <junction id="13446436" type="traffic_light" x="1068.78" y="1113.41" incLanes="107766_0 107766_1 107766_2 20146477_0 20146477_1" intLanes="" shape="1081.54,1117.77 1083.61,1111.72 1081.61,1110.54 1081.03,1109.73 1080.73,1108.78 1080.72,1107.67 1080.99,1106.42 1071.81,1103.58 1070.76,1105.52 1070.01,1106.08 1069.12,1106.38 1068.08,1106.40 1066.89,1106.16 1065.06,1112.29 1066.99,1113.36 1067.54,1114.13 1067.82,1115.07 1067.82,1116.16 1067.55,1117.42 1076.73,1120.23 1077.77,1118.31 1078.50,1117.76 1079.37,1117.49 1080.38,1117.49">
        <request index="0" response="00000000" foes="00110000"/>
        <request index="1" response="00000000" foes="11110000"/>
        <request index="2" response="00000000" foes="11110000"/>
        <request index="3" response="00000000" foes="11110000"/>
        <request index="4" response="00001111" foes="00001111"/>
        <request index="5" response="00001111" foes="00001111"/>
        <request index="6" response="00001110" foes="00001110"/>
        <request index="7" response="00001110" foes="00001110"/>
    </junction>
    <junction id="13446459" type="dead_end" x="1937.64" y="1095.11" incLanes="" intLanes="" shape="1937.64,1095.11 1946.82,1097.93"/>
    <junction id="13446658" type="dead_end" x="522.09" y="914.20" incLanes="107831_0 107831_1" intLanes="" shape="524.01,908.10 522.09,914.20"/>
    <junction id="13446676" type="dead_end" x="1133.86" y="902.83" incLanes="" intLanes="" shape="1133.86,902.83 1143.04,905.67"/>
    <junction id="13446743" type="traffic_light" x="285.24" y="839.71" incLanes="7204482_0 7204482_1 7204482_2 108009_0 108009_1" intLanes="" shape="297.98,843.72 299.90,837.61 297.82,836.45 297.19,835.61 296.85,834.60 296.78,833.43 296.99,832.09 287.66,829.81 286.78,831.69 286.12,832.21 285.31,832.47 284.36,832.44 283.26,832.14 281.02,838.14 283.23,839.41 283.88,840.20 284.23,841.11 284.27,842.13 284.01,843.25 293.08,846.41 294.21,844.41 294.97,843.83 295.85,843.52 296.85,843.48">
        <request index="0" response="00000000" foes="00110000"/>
        <request index="1" response="00000000" foes="11110000"/>
        <request index="2" response="00000000" foes="11110000"/>
        <request index="3" response="00000000" foes="11110000"/>
        <request index="4" response="00001111" foes="00001111"/>
        <request index="5" response="00001111" foes="00001111"/>
        <request index="6" response="00001110" foes="00001110"/>
        <request index="7" response="00001110" foes="00001110"/>
    </junction>
    <junction id="13446984" type="dead_end" x="342.53" y="656.80" incLanes="" intLanes="" shape="342.53,656.80 351.68,659.70"/>
    <junction id="13446991" type="dead_end" x="0.00" y="651.35" incLanes="" intLanes="" shape="-0.00,651.35 4.84,647.16"/>
    <junction id="13447073" type="dead_end" x="1224.60" y="589.87" incLanes="3648605_0 3648605_1 3648605_2" intLanes="" shape="1234.10,591.25 1224.60,589.87"/>
    <junction id="13447104" type="dead_end" x="372.78" y="561.66" incLanes="7204446_0 7204446_1 7204446_2" intLanes="" shape="381.89,564.66 372.78,561.66"/>
    <junction id="13447135" type="dead_end" x="1238.75" y="540.00" incLanes="108126_0 108126_1 108126_2" intLanes="" shape="1241.27,530.74 1238.75,540.00"/>
    <junction id="13447139" type="traffic_light" x="1232.12" y="538.20" incLanes="108322_0 108322_1 108322_2 6786837_0 6786837_1 6786837_2" intLanes="" shape="1244.98,541.69 1247.50,532.43 1243.91,526.75 1234.46,525.06 1233.72,526.94 1233.11,527.48 1232.34,527.77 1231.42,527.79 1230.33,527.54 1227.39,536.68 1229.94,538.06 1230.76,539.01 1231.28,540.15 1231.50,541.47 1231.42,542.98 1240.92,544.36">
        <request index="0" response="000000000" foes="001110000"/>
        <request index="1" response="000000000" foes="111110000"/>
        <request index="2" response="000000000" foes="111110000"/>
        <request index="3" response="000000000" foes="111110000"/>
        <request index="4" response="000001111" foes="000001111"/>
        <request index="5" response="000001111" foes="000001111"/>
        <request index="6" response="000001111" foes="000001111"/>
        <request index="7" response="000001110" foes="000001110"/>
        <request index="8" response="000001110" foes="000001110"/>
    </junction>
    <junction id="13447233" type="dead_end" x="1021.38" y="470.41" incLanes="" intLanes="" shape="1021.38,470.41 1024.32,461.27"/>
    <junction id="13447415" type="traffic_light" x="1278.24" y="345.07" incLanes="9638455_0 9638455_1 9638455_2" intLanes="" shape="1287.48,347.70 1278.30,344.88 1278.19,345.26 1287.43,347.85">
        <request index="0" response="000" foes="000"/>
        <request index="1" response="000" foes="000"/>
        <request index="2" response="000" foes="000"/>
    </junction>
    <junction id="13447419" type="dead_end" x="632.48" y="342.33" incLanes="108388_0 108388_1 108388_2" intLanes="" shape="635.42,333.19 632.48,342.33"/>
    <junction id="13447496" type="traffic_light" x="447.91" y="282.98" incLanes="108537_0 108537_1 108537_2 108429_0 108429_1 108429_2" intLanes="" shape="460.32,286.97 463.26,277.83 460.78,276.46 459.99,275.50 459.50,274.34 459.30,273.00 459.40,271.47 449.92,270.00 449.26,271.76 448.71,272.27 448.01,272.53 447.15,272.55 446.14,272.33 443.20,281.47 445.71,282.75 446.49,283.59 446.95,284.57 447.10,285.68 446.93,286.93 456.25,289.24 457.06,287.51 457.68,287.01 458.42,286.76 459.30,286.74">
        <request index="0" response="000000000" foes="001110000"/>
        <request index="1" response="000000000" foes="111110000"/>
        <request index="2" response="000000000" foes="111110000"/>
        <request index="3" response="000000000" foes="111110000"/>
        <request index="4" response="000001111" foes="000001111"/>
        <request index="5" response="000001111" foes="000001111"/>
        <request index="6" response="000001111" foes="000001111"/>
        <request index="7" response="000001110" foes="000001110"/>
        <request index="8" response="000001110" foes="000001110"/>
    </junction>
    <junction id="13447551" type="dead_end" x="311.24" y="239.03" incLanes="" intLanes="" shape="311.24,239.03 314.14,229.88"/>
    <junction id="13447705" type="dead_end" x="476.39" y="128.48" incLanes="" intLanes="" shape="476.39,128.48 485.52,131.44"/>
    <junction id="13447880" type="dead_end" x="1385.12" y="0.00" incLanes="" intLanes="" shape="1385.12,-0.00 1394.29,2.86"/>
    <junction id="20146478" type="dead_end" x="842.91" y="1040.36" incLanes="" intLanes="" shape="842.91,1040.36 845.48,1034.50"/>

    <connection from="107587" to="107563" fromLane="0" toLane="1" tl="13446387" linkIndex="3" dir="l" state="o"/>
    <connection from="107587" to="107563" fromLane="0" toLane="2" tl="13446387" linkIndex="4" dir="l" state="o"/>
    <connection from="107613" to="107563" fromLane="0" toLane="0" tl="13446387" linkIndex="0" dir="s" state="O"/>
    <connection from="107613" to="107563" fromLane="1" toLane="1" tl="13446387" linkIndex="1" dir="s" state="O"/>
    <connection from="107613" to="107563" fromLane="2" toLane="2" tl="13446387" linkIndex="2" dir="s" state="O"/>